REMARK  7 active torsions:
REMARK  status: ('A' for Active; 'I' for Inactive)
REMARK    1  A    between atoms: C_1  and  O_20 
REMARK       I    between atoms: N_2  and  C_18 
REMARK    2  A    between atoms: C_5  and  C_10 
REMARK    3  A    between atoms: C_7  and  C_18 
REMARK    4  A    between atoms: C_13  and  O_16 
REMARK    5  A    between atoms: O_20  and  C_21 
REMARK    6  A    between atoms: C_25  and  C_27 
REMARK    7  A    between atoms: C_27  and  N_31 
ROOT
HETATM    1  C   UNL     1      12.227 -21.032  -0.335  1.00  0.00     0.165 C 
HETATM    2  N   UNL     1      12.384 -18.963  -0.394  1.00  0.00    -0.340 N 
HETATM    3  C   UNL     1      13.308 -19.998   0.091  1.00  0.00     0.160 C 
HETATM    4  C   UNL     1      11.256 -19.839  -0.342  1.00  0.00     0.160 C 
HETATM    5  C   UNL     1      12.417 -17.601  -0.108  1.00  0.00     0.298 C 
HETATM    6  O   UNL     1      13.492 -17.070   0.149  1.00  0.00    -0.263 OA
ENDROOT
BRANCH   1   7
HETATM    7  O   UNL     1      11.920 -22.139   0.574  1.00  0.00    -0.343 OA
BRANCH   7   8
HETATM    8  C   UNL     1      10.752 -22.824   0.321  1.00  0.00     0.069 C 
HETATM    9  C   UNL     1      10.734 -24.216   0.311  1.00  0.00     0.037 C 
HETATM   10  C   UNL     1       9.521 -24.913   0.093  1.00  0.00     0.011 C 
HETATM   11  C   UNL     1       8.325 -24.219  -0.159  1.00  0.00    -0.032 C 
HETATM   12  C   UNL     1       8.404 -22.834  -0.235  1.00  0.00     0.011 C 
HETATM   13  C   UNL     1       9.557 -22.159   0.111  1.00  0.00     0.037 C 
BRANCH  11  14
HETATM   14  C   UNL     1       6.977 -24.889  -0.334  1.00  0.00     0.273 C 
BRANCH  14  15
HETATM   15  N   UNL     1       5.912 -24.277   0.542  1.00  0.00    -0.065 N 
HETATM   16  C   UNL     1       4.574 -24.787   0.285  1.00  0.00     0.250 C 
HETATM   17  C   UNL     1       3.979 -23.385   0.709  1.00  0.00     0.051 C 
HETATM   18  C   UNL     1       5.381 -23.028   0.030  1.00  0.00     0.250 C 
HETATM   19  C   UNL     1       2.610 -23.677  -0.047  1.00  0.00     0.182 C 
HETATM   20  C   UNL     1       3.485 -21.948   0.322  1.00  0.00     0.182 C 
HETATM   21  O   UNL     1       2.133 -22.349   0.159  1.00  0.00    -0.389 OA
HETATM   22  H   UNL     1       6.193 -24.258   1.532  1.00  0.00     0.280 HD
ENDBRANCH  14  15
ENDBRANCH  11  14
ENDBRANCH   7   8
ENDBRANCH   1   7
BRANCH   5  23
HETATM   23  C   UNL     1      11.135 -16.876  -0.121  1.00  0.00     0.261 A 
HETATM   24  O   UNL     1       9.903 -17.512  -0.209  1.00  0.00    -0.265 OA
HETATM   25  C   UNL     1       9.023 -16.461  -0.089  1.00  0.00     0.203 A 
HETATM   26  N   UNL     1       9.647 -15.308   0.034  1.00  0.00    -0.121 NA
HETATM   27  N   UNL     1      11.000 -15.573   0.020  1.00  0.00    -0.116 NA
BRANCH  25  28
HETATM   28  C   UNL     1       7.581 -16.727  -0.105  1.00  0.00     0.019 A 
HETATM   29  C   UNL     1       7.016 -18.014  -0.135  1.00  0.00     0.018 A 
HETATM   30  C   UNL     1       5.615 -18.198  -0.145  1.00  0.00     0.037 A 
HETATM   31  C   UNL     1       4.760 -17.097  -0.114  1.00  0.00     0.068 A 
HETATM   32  C   UNL     1       5.314 -15.819  -0.090  1.00  0.00     0.037 A 
HETATM   33  C   UNL     1       6.700 -15.636  -0.081  1.00  0.00     0.018 A 
BRANCH  31  34
HETATM   34  O   UNL     1       3.397 -17.106  -0.113  1.00  0.00    -0.356 OA
HETATM   35  C   UNL     1       2.711 -18.327   0.108  1.00  0.00     0.210 C 
ENDBRANCH  31  34
ENDBRANCH  25  28
ENDBRANCH   5  23
TORSDOF 7
