REMARK  7 active torsions:
REMARK  status: ('A' for Active; 'I' for Inactive)
REMARK    1  A    between atoms: C_10  and  O_13 
REMARK    2  A    between atoms: O_13  and  C_14 
REMARK    3  A    between atoms: C_14  and  C_15 
REMARK    4  A    between atoms: C_15  and  C_16 
REMARK    5  A    between atoms: C_16  and  C_17 
REMARK    6  A    between atoms: C_17  and  C_18 
REMARK    7  A    between atoms: N_21  and  C_24 
ROOT
HETATM    1  C   LIG     1       6.948  -1.362  -0.102  1.00  0.00     0.002 C 
ENDROOT
BRANCH   1   2
HETATM    2  C   LIG     1       5.610  -0.620  -0.076  1.00  0.00     0.027 C 
BRANCH   2   3
HETATM    3  C   LIG     1       4.398  -1.509  -0.339  1.00  0.00     0.175 C 
BRANCH   3   4
HETATM    4  O   LIG     1       3.264  -0.638  -0.339  1.00  0.00    -0.351 OA
BRANCH   4   5
HETATM    5  C   LIG     1       2.018  -1.193  -0.353  1.00  0.00     0.070 A 
HETATM    6  C   LIG     1       0.977  -0.271  -0.203  1.00  0.00     0.066 A 
HETATM    7  C   LIG     1      -0.346  -0.704  -0.174  1.00  0.00     0.043 A 
HETATM    8  C   LIG     1      -0.652  -2.059  -0.320  1.00  0.00    -0.031 A 
HETATM    9  N   LIG     1      -1.377   0.228  -0.021  1.00  0.00    -0.327 N 
HETATM   10  C   LIG     1      -2.093  -2.479  -0.399  1.00  0.00     0.050 C 
HETATM   11  C   LIG     1       0.388  -2.978  -0.498  1.00  0.00     0.012 A 
HETATM   12  C   LIG     1      -2.980  -1.567   0.435  1.00  0.00     0.108 C 
HETATM   13  C   LIG     1      -2.689  -0.106   0.185  1.00  0.00     0.222 C 
HETATM   14  O   LIG     1      -3.557   0.761   0.268  1.00  0.00    -0.273 OA
HETATM   15  C   LIG     1       1.721  -2.547  -0.506  1.00  0.00     0.037 A 
HETATM   16  H   LIG     1      -1.173   1.218  -0.052  1.00  0.00     0.169 HD
ENDBRANCH   4   5
ENDBRANCH   3   4
ENDBRANCH   2   3
ENDBRANCH   1   2
BRANCH   1  17
HETATM   17  C   LIG     1       8.069  -0.389   0.279  1.00  0.00     0.005 C 
BRANCH  17  18
HETATM   18  C   LIG     1       9.500  -0.937   0.126  1.00  0.00    -0.012 C 
HETATM   19  C   LIG     1      10.495   0.199   0.399  1.00  0.00     0.024 C 
HETATM   20  C   LIG     1      11.953  -0.242   0.259  1.00  0.00     0.123 C 
HETATM   21  N   LIG     1      12.172  -1.581   0.811  1.00  0.00    -0.379 N 
HETATM   22  C   LIG     1      11.152  -2.089   1.728  1.00  0.00     0.123 C 
HETATM   23  C   LIG     1       9.787  -2.151   1.033  1.00  0.00     0.024 C 
BRANCH  21  24
HETATM   24  C   LIG     1      13.299  -2.338   0.488  1.00  0.00     0.053 A 
HETATM   25  C   LIG     1      14.624  -1.840   0.339  1.00  0.00     0.082 A 
HETATM   26  C   LIG     1      15.687  -2.706  -0.007  1.00  0.00     0.058 A 
HETATM   27 CL   LIG     1      15.023  -0.177   0.676  1.00  0.00    -0.080 Cl
HETATM   28  C   LIG     1      15.466  -4.068  -0.200  1.00  0.00     0.026 A 
HETATM   29 CL   LIG     1      17.323  -2.158  -0.202  1.00  0.00    -0.082 Cl
HETATM   30  C   LIG     1      14.186  -4.580  -0.058  1.00  0.00     0.004 A 
HETATM   31  C   LIG     1      13.129  -3.726   0.273  1.00  0.00     0.031 A 
ENDBRANCH  21  24
ENDBRANCH  17  18
ENDBRANCH   1  17
TORSDOF 7
