MODEL 1
REMARK VINA RESULT:     -10.9      0.000      0.000
REMARK  7 active torsions:
REMARK  status: ('A' for Active; 'I' for Inactive)
REMARK    1  A    between atoms: C_10  and  O_13 
REMARK    2  A    between atoms: O_13  and  C_14 
REMARK    3  A    between atoms: C_14  and  C_15 
REMARK    4  A    between atoms: C_15  and  C_16 
REMARK    5  A    between atoms: C_16  and  C_17 
REMARK    6  A    between atoms: C_17  and  C_18 
REMARK    7  A    between atoms: N_21  and  C_24 
ROOT
HETATM    1  C   LIG     1      72.136  -1.138  39.251  1.00  0.00     0.002 C 
ENDROOT
BRANCH   1   2
HETATM    2  C   LIG     1      71.910  -1.525  40.714  1.00  0.00     0.027 C 
BRANCH   2   3
HETATM    3  C   LIG     1      70.588  -1.029  41.293  1.00  0.00     0.175 C 
BRANCH   3   4
HETATM    4  O   LIG     1      70.919   0.067  42.149  1.00  0.00    -0.351 OA
BRANCH   4   5
HETATM    5  C   LIG     1      70.985   1.317  41.608  1.00  0.00     0.070 A 
HETATM    6  C   LIG     1      69.739   1.887  41.326  1.00  0.00     0.066 A 
HETATM    7  C   LIG     1      69.660   3.151  40.747  1.00  0.00     0.043 A 
HETATM    8  C   LIG     1      70.820   3.876  40.465  1.00  0.00    -0.031 A 
HETATM    9  N   LIG     1      68.408   3.708  40.467  1.00  0.00    -0.327 N 
HETATM   10  C   LIG     1      70.696   5.281  39.947  1.00  0.00     0.050 C 
HETATM   11  C   LIG     1      72.065   3.318  40.773  1.00  0.00     0.012 A 
HETATM   12  C   LIG     1      69.449   5.446  39.092  1.00  0.00     0.108 C 
HETATM   13  C   LIG     1      68.223   4.862  39.754  1.00  0.00     0.222 C 
HETATM   14  O   LIG     1      67.097   5.324  39.579  1.00  0.00    -0.273 OA
HETATM   15  C   LIG     1      72.148   2.037  41.336  1.00  0.00     0.037 A 
HETATM   16  H   LIG     1      67.566   3.250  40.792  1.00  0.00     0.169 HD
ENDBRANCH   4   5
ENDBRANCH   3   4
ENDBRANCH   2   3
ENDBRANCH   1   2
BRANCH   1  17
HETATM   17  C   LIG     1      71.398  -2.133  38.349  1.00  0.00     0.005 C 
BRANCH  17  18
HETATM   18  C   LIG     1      72.009  -2.336  36.950  1.00  0.00    -0.012 C 
HETATM   19  C   LIG     1      71.136  -3.327  36.169  1.00  0.00     0.024 C 
HETATM   20  C   LIG     1      71.667  -3.607  34.763  1.00  0.00     0.123 C 
HETATM   21  N   LIG     1      72.181  -2.393  34.123  1.00  0.00    -0.379 N 
HETATM   22  C   LIG     1      71.755  -1.117  34.697  1.00  0.00     0.123 C 
HETATM   23  C   LIG     1      72.183  -1.019  36.166  1.00  0.00     0.024 C 
BRANCH  21  24
HETATM   24  C   LIG     1      73.029  -2.444  33.016  1.00  0.00     0.053 A 
HETATM   25  C   LIG     1      72.657  -2.186  31.667  1.00  0.00     0.082 A 
HETATM   26  C   LIG     1      73.606  -2.284  30.624  1.00  0.00     0.058 A 
HETATM   27 CL   LIG     1      71.057  -1.638  31.245  1.00  0.00    -0.080 Cl
HETATM   28  C   LIG     1      74.930  -2.624  30.892  1.00  0.00     0.026 A 
HETATM   29 CL   LIG     1      73.212  -1.981  28.960  1.00  0.00    -0.082 Cl
HETATM   30  C   LIG     1      75.321  -2.877  32.197  1.00  0.00     0.004 A 
HETATM   31  C   LIG     1      74.383  -2.793  33.231  1.00  0.00     0.031 A 
ENDBRANCH  21  24
ENDBRANCH  17  18
ENDBRANCH   1  17
TORSDOF 7
ENDMDL
MODEL 2
REMARK VINA RESULT:     -10.8     15.221     20.431
REMARK  7 active torsions:
REMARK  status: ('A' for Active; 'I' for Inactive)
REMARK    1  A    between atoms: C_10  and  O_13 
REMARK    2  A    between atoms: O_13  and  C_14 
REMARK    3  A    between atoms: C_14  and  C_15 
REMARK    4  A    between atoms: C_15  and  C_16 
REMARK    5  A    between atoms: C_16  and  C_17 
REMARK    6  A    between atoms: C_17  and  C_18 
REMARK    7  A    between atoms: N_21  and  C_24 
ROOT
HETATM    1  C   LIG     1      73.602  -6.496  18.559  1.00  0.00     0.002 C 
ENDROOT
BRANCH   1   2
HETATM    2  C   LIG     1      72.833  -5.779  19.671  1.00  0.00     0.027 C 
BRANCH   2   3
HETATM    3  C   LIG     1      72.226  -4.444  19.250  1.00  0.00     0.175 C 
BRANCH   3   4
HETATM    4  O   LIG     1      72.061  -3.690  20.454  1.00  0.00    -0.351 OA
BRANCH   4   5
HETATM    5  C   LIG     1      73.138  -3.015  20.951  1.00  0.00     0.070 A 
HETATM    6  C   LIG     1      73.238  -3.042  22.346  1.00  0.00     0.066 A 
HETATM    7  C   LIG     1      74.275  -2.373  22.988  1.00  0.00     0.043 A 
HETATM    8  C   LIG     1      75.243  -1.688  22.249  1.00  0.00    -0.031 A 
HETATM    9  N   LIG     1      74.363  -2.406  24.384  1.00  0.00    -0.327 N 
HETATM   10  C   LIG     1      76.411  -1.072  22.967  1.00  0.00     0.050 C 
HETATM   11  C   LIG     1      75.158  -1.684  20.853  1.00  0.00     0.012 A 
HETATM   12  C   LIG     1      76.019  -0.601  24.359  1.00  0.00     0.108 C 
HETATM   13  C   LIG     1      75.239  -1.650  25.116  1.00  0.00     0.222 C 
HETATM   14  O   LIG     1      75.298  -1.757  26.339  1.00  0.00    -0.273 OA
HETATM   15  C   LIG     1      74.103  -2.339  20.205  1.00  0.00     0.037 A 
HETATM   16  H   LIG     1      73.749  -3.009  24.915  1.00  0.00     0.169 HD
ENDBRANCH   4   5
ENDBRANCH   3   4
ENDBRANCH   2   3
ENDBRANCH   1   2
BRANCH   1  17
HETATM   17  C   LIG     1      73.585  -8.004  18.829  1.00  0.00     0.005 C 
BRANCH  17  18
HETATM   18  C   LIG     1      73.486  -8.899  17.579  1.00  0.00    -0.012 C 
HETATM   19  C   LIG     1      73.925  -8.085  16.354  1.00  0.00     0.024 C 
HETATM   20  C   LIG     1      73.850  -8.884  15.052  1.00  0.00     0.123 C 
HETATM   21  N   LIG     1      74.298 -10.267  15.236  1.00  0.00    -0.379 N 
HETATM   22  C   LIG     1      75.094 -10.547  16.430  1.00  0.00     0.123 C 
HETATM   23  C   LIG     1      74.302 -10.202  17.697  1.00  0.00     0.024 C 
BRANCH  21  24
HETATM   24  C   LIG     1      73.991 -11.271  14.317  1.00  0.00     0.053 A 
HETATM   25  C   LIG     1      74.904 -11.881  13.411  1.00  0.00     0.082 A 
HETATM   26  C   LIG     1      74.469 -12.883  12.512  1.00  0.00     0.058 A 
HETATM   27 CL   LIG     1      76.607 -11.510  13.435  1.00  0.00    -0.080 Cl
HETATM   28  C   LIG     1      73.141 -13.304  12.498  1.00  0.00     0.026 A 
HETATM   29 CL   LIG     1      75.535 -13.664  11.386  1.00  0.00    -0.082 Cl
HETATM   30  C   LIG     1      72.232 -12.728  13.371  1.00  0.00     0.004 A 
HETATM   31  C   LIG     1      72.654 -11.729  14.254  1.00  0.00     0.031 A 
ENDBRANCH  21  24
ENDBRANCH  17  18
ENDBRANCH   1  17
TORSDOF 7
ENDMDL
MODEL 3
REMARK VINA RESULT:     -10.7      0.799      1.247
REMARK  7 active torsions:
REMARK  status: ('A' for Active; 'I' for Inactive)
REMARK    1  A    between atoms: C_10  and  O_13 
REMARK    2  A    between atoms: O_13  and  C_14 
REMARK    3  A    between atoms: C_14  and  C_15 
REMARK    4  A    between atoms: C_15  and  C_16 
REMARK    5  A    between atoms: C_16  and  C_17 
REMARK    6  A    between atoms: C_17  and  C_18 
REMARK    7  A    between atoms: N_21  and  C_24 
ROOT
HETATM    1  C   LIG     1      71.167  -1.947  38.757  1.00  0.00     0.002 C 
ENDROOT
BRANCH   1   2
HETATM    2  C   LIG     1      70.263  -1.919  39.992  1.00  0.00     0.027 C 
BRANCH   2   3
HETATM    3  C   LIG     1      70.988  -1.564  41.287  1.00  0.00     0.175 C 
BRANCH   3   4
HETATM    4  O   LIG     1      70.233  -0.504  41.882  1.00  0.00    -0.351 OA
BRANCH   4   5
HETATM    5  C   LIG     1      70.492   0.777  41.491  1.00  0.00     0.070 A 
HETATM    6  C   LIG     1      69.351   1.523  41.179  1.00  0.00     0.066 A 
HETATM    7  C   LIG     1      69.471   2.840  40.741  1.00  0.00     0.043 A 
HETATM    8  C   LIG     1      70.728   3.439  40.633  1.00  0.00    -0.031 A 
HETATM    9  N   LIG     1      68.322   3.574  40.430  1.00  0.00    -0.327 N 
HETATM   10  C   LIG     1      70.815   4.895  40.268  1.00  0.00     0.050 C 
HETATM   11  C   LIG     1      71.867   2.701  40.972  1.00  0.00     0.012 A 
HETATM   12  C   LIG     1      69.677   5.301  39.343  1.00  0.00     0.108 C 
HETATM   13  C   LIG     1      68.338   4.809  39.839  1.00  0.00     0.222 C 
HETATM   14  O   LIG     1      67.293   5.424  39.631  1.00  0.00    -0.273 OA
HETATM   15  C   LIG     1      71.750   1.370  41.392  1.00  0.00     0.037 A 
HETATM   16  H   LIG     1      67.408   3.194  40.636  1.00  0.00     0.169 HD
ENDBRANCH   4   5
ENDBRANCH   3   4
ENDBRANCH   2   3
ENDBRANCH   1   2
BRANCH   1  17
HETATM   17  C   LIG     1      70.319  -2.275  37.523  1.00  0.00     0.005 C 
BRANCH  17  18
HETATM   18  C   LIG     1      71.056  -2.188  36.173  1.00  0.00    -0.012 C 
HETATM   19  C   LIG     1      72.136  -1.102  36.270  1.00  0.00     0.024 C 
HETATM   20  C   LIG     1      72.921  -0.927  34.969  1.00  0.00     0.123 C 
HETATM   21  N   LIG     1      73.205  -2.213  34.328  1.00  0.00    -0.379 N 
HETATM   22  C   LIG     1      73.087  -3.406  35.166  1.00  0.00     0.123 C 
HETATM   23  C   LIG     1      71.665  -3.533  35.725  1.00  0.00     0.024 C 
BRANCH  21  24
HETATM   24  C   LIG     1      73.576  -2.303  32.985  1.00  0.00     0.053 A 
HETATM   25  C   LIG     1      72.717  -2.112  31.867  1.00  0.00     0.082 A 
HETATM   26  C   LIG     1      73.207  -2.245  30.547  1.00  0.00     0.058 A 
HETATM   27 CL   LIG     1      71.060  -1.603  32.059  1.00  0.00    -0.080 Cl
HETATM   28  C   LIG     1      74.544  -2.556  30.309  1.00  0.00     0.026 A 
HETATM   29 CL   LIG     1      72.208  -2.022  29.145  1.00  0.00    -0.082 Cl
HETATM   30  C   LIG     1      75.403  -2.745  31.380  1.00  0.00     0.004 A 
HETATM   31  C   LIG     1      74.921  -2.626  32.687  1.00  0.00     0.031 A 
ENDBRANCH  21  24
ENDBRANCH  17  18
ENDBRANCH   1  17
TORSDOF 7
ENDMDL
MODEL 4
REMARK VINA RESULT:     -10.7      9.931     16.617
REMARK  7 active torsions:
REMARK  status: ('A' for Active; 'I' for Inactive)
REMARK    1  A    between atoms: C_10  and  O_13 
REMARK    2  A    between atoms: O_13  and  C_14 
REMARK    3  A    between atoms: C_14  and  C_15 
REMARK    4  A    between atoms: C_15  and  C_16 
REMARK    5  A    between atoms: C_16  and  C_17 
REMARK    6  A    between atoms: C_17  and  C_18 
REMARK    7  A    between atoms: N_21  and  C_24 
ROOT
HETATM    1  C   LIG     1      76.241   0.493  23.082  1.00  0.00     0.002 C 
ENDROOT
BRANCH   1   2
HETATM    2  C   LIG     1      75.109   0.607  22.059  1.00  0.00     0.027 C 
BRANCH   2   3
HETATM    3  C   LIG     1      75.384  -0.114  20.742  1.00  0.00     0.175 C 
BRANCH   3   4
HETATM    4  O   LIG     1      74.124  -0.633  20.308  1.00  0.00    -0.351 OA
BRANCH   4   5
HETATM    5  C   LIG     1      73.838  -1.943  20.563  1.00  0.00     0.070 A 
HETATM    6  C   LIG     1      74.087  -2.804  19.489  1.00  0.00     0.066 A 
HETATM    7  C   LIG     1      73.815  -4.165  19.603  1.00  0.00     0.043 A 
HETATM    8  C   LIG     1      73.316  -4.691  20.797  1.00  0.00    -0.031 A 
HETATM    9  N   LIG     1      74.067  -5.015  18.522  1.00  0.00    -0.327 N 
HETATM   10  C   LIG     1      73.142  -6.178  20.925  1.00  0.00     0.050 C 
HETATM   11  C   LIG     1      73.093  -3.833  21.880  1.00  0.00     0.012 A 
HETATM   12  C   LIG     1      72.784  -6.809  19.588  1.00  0.00     0.108 C 
HETATM   13  C   LIG     1      73.683  -6.329  18.473  1.00  0.00     0.222 C 
HETATM   14  O   LIG     1      73.973  -7.037  17.511  1.00  0.00    -0.273 OA
HETATM   15  C   LIG     1      73.346  -2.460  21.760  1.00  0.00     0.037 A 
HETATM   16  H   LIG     1      74.553  -4.666  17.707  1.00  0.00     0.169 HD
ENDBRANCH   4   5
ENDBRANCH   3   4
ENDBRANCH   2   3
ENDBRANCH   1   2
BRANCH   1  17
HETATM   17  C   LIG     1      76.302  -0.946  23.605  1.00  0.00     0.005 C 
BRANCH  17  18
HETATM   18  C   LIG     1      75.901  -1.131  25.080  1.00  0.00    -0.012 C 
HETATM   19  C   LIG     1      75.555   0.242  25.673  1.00  0.00     0.024 C 
HETATM   20  C   LIG     1      75.154   0.168  27.147  1.00  0.00     0.123 C 
HETATM   21  N   LIG     1      74.319  -1.003  27.426  1.00  0.00    -0.379 N 
HETATM   22  C   LIG     1      73.682  -1.645  26.276  1.00  0.00     0.123 C 
HETATM   23  C   LIG     1      74.738  -2.125  25.275  1.00  0.00     0.024 C 
BRANCH  21  24
HETATM   24  C   LIG     1      74.130  -1.484  28.722  1.00  0.00     0.053 A 
HETATM   25  C   LIG     1      75.135  -2.051  29.556  1.00  0.00     0.082 A 
HETATM   26  C   LIG     1      74.819  -2.520  30.852  1.00  0.00     0.058 A 
HETATM   27 CL   LIG     1      76.809  -2.098  29.074  1.00  0.00    -0.080 Cl
HETATM   28  C   LIG     1      73.520  -2.430  31.348  1.00  0.00     0.026 A 
HETATM   29 CL   LIG     1      76.000  -3.219  31.915  1.00  0.00    -0.082 Cl
HETATM   30  C   LIG     1      72.523  -1.879  30.558  1.00  0.00     0.004 A 
HETATM   31  C   LIG     1      72.828  -1.424  29.272  1.00  0.00     0.031 A 
ENDBRANCH  21  24
ENDBRANCH  17  18
ENDBRANCH   1  17
TORSDOF 7
ENDMDL
MODEL 5
REMARK VINA RESULT:     -10.7     10.963     17.768
REMARK  7 active torsions:
REMARK  status: ('A' for Active; 'I' for Inactive)
REMARK    1  A    between atoms: C_10  and  O_13 
REMARK    2  A    between atoms: O_13  and  C_14 
REMARK    3  A    between atoms: C_14  and  C_15 
REMARK    4  A    between atoms: C_15  and  C_16 
REMARK    5  A    between atoms: C_16  and  C_17 
REMARK    6  A    between atoms: C_17  and  C_18 
REMARK    7  A    between atoms: N_21  and  C_24 
ROOT
HETATM    1  C   LIG     1      75.247  -1.830  21.032  1.00  0.00     0.002 C 
ENDROOT
BRANCH   1   2
HETATM    2  C   LIG     1      74.007  -1.259  20.341  1.00  0.00     0.027 C 
BRANCH   2   3
HETATM    3  C   LIG     1      72.685  -1.755  20.919  1.00  0.00     0.175 C 
BRANCH   3   4
HETATM    4  O   LIG     1      72.162  -2.683  19.965  1.00  0.00    -0.351 OA
BRANCH   4   5
HETATM    5  C   LIG     1      72.627  -3.965  19.982  1.00  0.00     0.070 A 
HETATM    6  C   LIG     1      72.790  -4.534  18.715  1.00  0.00     0.066 A 
HETATM    7  C   LIG     1      73.234  -5.848  18.587  1.00  0.00     0.043 A 
HETATM    8  C   LIG     1      73.546  -6.604  19.719  1.00  0.00    -0.031 A 
HETATM    9  N   LIG     1      73.390  -6.405  17.314  1.00  0.00    -0.327 N 
HETATM   10  C   LIG     1      74.131  -7.977  19.542  1.00  0.00     0.050 C 
HETATM   11  C   LIG     1      73.410  -6.025  20.985  1.00  0.00     0.012 A 
HETATM   12  C   LIG     1      73.600  -8.645  18.282  1.00  0.00     0.108 C 
HETATM   13  C   LIG     1      73.659  -7.728  17.084  1.00  0.00     0.222 C 
HETATM   14  O   LIG     1      73.829  -8.149  15.941  1.00  0.00    -0.273 OA
HETATM   15  C   LIG     1      72.943  -4.711  21.117  1.00  0.00     0.037 A 
HETATM   16  H   LIG     1      73.298  -5.823  16.492  1.00  0.00     0.169 HD
ENDBRANCH   4   5
ENDBRANCH   3   4
ENDBRANCH   2   3
ENDBRANCH   1   2
BRANCH   1  17
HETATM   17  C   LIG     1      75.942  -0.714  21.819  1.00  0.00     0.005 C 
BRANCH  17  18
HETATM   18  C   LIG     1      75.939  -0.884  23.350  1.00  0.00    -0.012 C 
HETATM   19  C   LIG     1      75.628   0.473  23.996  1.00  0.00     0.024 C 
HETATM   20  C   LIG     1      75.615   0.413  25.525  1.00  0.00     0.123 C 
HETATM   21  N   LIG     1      74.984  -0.814  26.016  1.00  0.00    -0.379 N 
HETATM   22  C   LIG     1      74.142  -1.545  25.069  1.00  0.00     0.123 C 
HETATM   23  C   LIG     1      74.955  -1.966  23.840  1.00  0.00     0.024 C 
BRANCH  21  24
HETATM   24  C   LIG     1      75.168  -1.267  27.323  1.00  0.00     0.053 A 
HETATM   25  C   LIG     1      74.198  -1.228  28.364  1.00  0.00     0.082 A 
HETATM   26  C   LIG     1      74.507  -1.705  29.659  1.00  0.00     0.058 A 
HETATM   27 CL   LIG     1      72.563  -0.698  28.075  1.00  0.00    -0.080 Cl
HETATM   28  C   LIG     1      75.764  -2.234  29.945  1.00  0.00     0.026 A 
HETATM   29 CL   LIG     1      73.367  -1.685  30.967  1.00  0.00    -0.082 Cl
HETATM   30  C   LIG     1      76.727  -2.286  28.949  1.00  0.00     0.004 A 
HETATM   31  C   LIG     1      76.430  -1.806  27.669  1.00  0.00     0.031 A 
ENDBRANCH  21  24
ENDBRANCH  17  18
ENDBRANCH   1  17
TORSDOF 7
ENDMDL
MODEL 6
REMARK VINA RESULT:     -10.5      1.146      1.836
REMARK  7 active torsions:
REMARK  status: ('A' for Active; 'I' for Inactive)
REMARK    1  A    between atoms: C_10  and  O_13 
REMARK    2  A    between atoms: O_13  and  C_14 
REMARK    3  A    between atoms: C_14  and  C_15 
REMARK    4  A    between atoms: C_15  and  C_16 
REMARK    5  A    between atoms: C_16  and  C_17 
REMARK    6  A    between atoms: C_17  and  C_18 
REMARK    7  A    between atoms: N_21  and  C_24 
ROOT
HETATM    1  C   LIG     1      71.652  -1.529  38.878  1.00  0.00     0.002 C 
ENDROOT
BRANCH   1   2
HETATM    2  C   LIG     1      71.266  -1.961  40.294  1.00  0.00     0.027 C 
BRANCH   2   3
HETATM    3  C   LIG     1      70.063  -1.218  40.868  1.00  0.00     0.175 C 
BRANCH   3   4
HETATM    4  O   LIG     1      70.592  -0.292  41.821  1.00  0.00    -0.351 OA
BRANCH   4   5
HETATM    5  C   LIG     1      70.760   1.007  41.442  1.00  0.00     0.070 A 
HETATM    6  C   LIG     1      69.569   1.677  41.142  1.00  0.00     0.066 A 
HETATM    7  C   LIG     1      69.596   3.002  40.716  1.00  0.00     0.043 A 
HETATM    8  C   LIG     1      70.808   3.687  40.608  1.00  0.00    -0.031 A 
HETATM    9  N   LIG     1      68.398   3.658  40.417  1.00  0.00    -0.327 N 
HETATM   10  C   LIG     1      70.793   5.149  40.256  1.00  0.00     0.050 C 
HETATM   11  C   LIG     1      71.997   3.026  40.935  1.00  0.00     0.012 A 
HETATM   12  C   LIG     1      69.626   5.484  39.340  1.00  0.00     0.108 C 
HETATM   13  C   LIG     1      68.326   4.897  39.837  1.00  0.00     0.222 C 
HETATM   14  O   LIG     1      67.241   5.441  39.639  1.00  0.00    -0.273 OA
HETATM   15  C   LIG     1      71.974   1.686  41.343  1.00  0.00     0.037 A 
HETATM   16  H   LIG     1      67.513   3.215  40.623  1.00  0.00     0.169 HD
ENDBRANCH   4   5
ENDBRANCH   3   4
ENDBRANCH   2   3
ENDBRANCH   1   2
BRANCH   1  17
HETATM   17  C   LIG     1      70.561  -1.981  37.901  1.00  0.00     0.005 C 
BRANCH  17  18
HETATM   18  C   LIG     1      70.905  -1.824  36.408  1.00  0.00    -0.012 C 
HETATM   19  C   LIG     1      72.265  -1.123  36.286  1.00  0.00     0.024 C 
HETATM   20  C   LIG     1      72.694  -0.906  34.834  1.00  0.00     0.123 C 
HETATM   21  N   LIG     1      72.365  -2.059  33.992  1.00  0.00    -0.379 N 
HETATM   22  C   LIG     1      72.090  -3.319  34.681  1.00  0.00     0.123 C 
HETATM   23  C   LIG     1      70.904  -3.161  35.639  1.00  0.00     0.024 C 
BRANCH  21  24
HETATM   24  C   LIG     1      72.322  -1.968  32.600  1.00  0.00     0.053 A 
HETATM   25  C   LIG     1      73.439  -2.055  31.723  1.00  0.00     0.082 A 
HETATM   26  C   LIG     1      73.271  -1.933  30.324  1.00  0.00     0.058 A 
HETATM   27 CL   LIG     1      75.040  -2.419  32.309  1.00  0.00    -0.080 Cl
HETATM   28  C   LIG     1      72.008  -1.736  29.770  1.00  0.00     0.026 A 
HETATM   29 CL   LIG     1      74.594  -2.031  29.204  1.00  0.00    -0.082 Cl
HETATM   30  C   LIG     1      70.902  -1.651  30.601  1.00  0.00     0.004 A 
HETATM   31  C   LIG     1      71.064  -1.760  31.986  1.00  0.00     0.031 A 
ENDBRANCH  21  24
ENDBRANCH  17  18
ENDBRANCH   1  17
TORSDOF 7
ENDMDL
MODEL 7
REMARK VINA RESULT:     -10.5      9.996     16.619
REMARK  7 active torsions:
REMARK  status: ('A' for Active; 'I' for Inactive)
REMARK    1  A    between atoms: C_10  and  O_13 
REMARK    2  A    between atoms: O_13  and  C_14 
REMARK    3  A    between atoms: C_14  and  C_15 
REMARK    4  A    between atoms: C_15  and  C_16 
REMARK    5  A    between atoms: C_16  and  C_17 
REMARK    6  A    between atoms: C_17  and  C_18 
REMARK    7  A    between atoms: N_21  and  C_24 
ROOT
HETATM    1  C   LIG     1      75.829   0.798  22.859  1.00  0.00     0.002 C 
ENDROOT
BRANCH   1   2
HETATM    2  C   LIG     1      74.759   0.896  21.770  1.00  0.00     0.027 C 
BRANCH   2   3
HETATM    3  C   LIG     1      74.981  -0.045  20.590  1.00  0.00     0.175 C 
BRANCH   3   4
HETATM    4  O   LIG     1      73.707  -0.633  20.311  1.00  0.00    -0.351 OA
BRANCH   4   5
HETATM    5  C   LIG     1      73.533  -1.960  20.572  1.00  0.00     0.070 A 
HETATM    6  C   LIG     1      73.851  -2.803  19.502  1.00  0.00     0.066 A 
HETATM    7  C   LIG     1      73.695  -4.181  19.623  1.00  0.00     0.043 A 
HETATM    8  C   LIG     1      73.243  -4.741  20.820  1.00  0.00    -0.031 A 
HETATM    9  N   LIG     1      74.014  -5.012  18.544  1.00  0.00    -0.327 N 
HETATM   10  C   LIG     1      73.195  -6.238  20.955  1.00  0.00     0.050 C 
HETATM   11  C   LIG     1      72.951  -3.900  21.899  1.00  0.00     0.012 A 
HETATM   12  C   LIG     1      72.889  -6.902  19.621  1.00  0.00     0.108 C 
HETATM   13  C   LIG     1      73.742  -6.353  18.502  1.00  0.00     0.222 C 
HETATM   14  O   LIG     1      74.089  -7.039  17.542  1.00  0.00    -0.273 OA
HETATM   15  C   LIG     1      73.088  -2.512  21.773  1.00  0.00     0.037 A 
HETATM   16  H   LIG     1      74.469  -4.628  17.727  1.00  0.00     0.169 HD
ENDBRANCH   4   5
ENDBRANCH   3   4
ENDBRANCH   2   3
ENDBRANCH   1   2
BRANCH   1  17
HETATM   17  C   LIG     1      76.059  -0.677  23.205  1.00  0.00     0.005 C 
BRANCH  17  18
HETATM   18  C   LIG     1      75.635  -1.097  24.625  1.00  0.00    -0.012 C 
HETATM   19  C   LIG     1      76.867  -1.628  25.371  1.00  0.00     0.024 C 
HETATM   20  C   LIG     1      76.548  -2.085  26.795  1.00  0.00     0.123 C 
HETATM   21  N   LIG     1      75.600  -1.185  27.456  1.00  0.00    -0.379 N 
HETATM   22  C   LIG     1      75.439   0.145  26.871  1.00  0.00     0.123 C 
HETATM   23  C   LIG     1      74.958   0.039  25.419  1.00  0.00     0.024 C 
BRANCH  21  24
HETATM   24  C   LIG     1      74.888  -1.568  28.593  1.00  0.00     0.053 A 
HETATM   25  C   LIG     1      73.475  -1.503  28.754  1.00  0.00     0.082 A 
HETATM   26  C   LIG     1      72.866  -1.907  29.964  1.00  0.00     0.058 A 
HETATM   27 CL   LIG     1      72.423  -1.028  27.448  1.00  0.00    -0.080 Cl
HETATM   28  C   LIG     1      73.631  -2.390  31.024  1.00  0.00     0.026 A 
HETATM   29 CL   LIG     1      71.149  -1.851  30.219  1.00  0.00    -0.082 Cl
HETATM   30  C   LIG     1      75.009  -2.467  30.893  1.00  0.00     0.004 A 
HETATM   31  C   LIG     1      75.617  -2.058  29.702  1.00  0.00     0.031 A 
ENDBRANCH  21  24
ENDBRANCH  17  18
ENDBRANCH   1  17
TORSDOF 7
ENDMDL
MODEL 8
REMARK VINA RESULT:     -10.4      7.145     12.981
REMARK  7 active torsions:
REMARK  status: ('A' for Active; 'I' for Inactive)
REMARK    1  A    between atoms: C_10  and  O_13 
REMARK    2  A    between atoms: O_13  and  C_14 
REMARK    3  A    between atoms: C_14  and  C_15 
REMARK    4  A    between atoms: C_15  and  C_16 
REMARK    5  A    between atoms: C_16  and  C_17 
REMARK    6  A    between atoms: C_17  and  C_18 
REMARK    7  A    between atoms: N_21  and  C_24 
ROOT
HETATM    1  C   LIG     1      75.413  -1.531  28.968  1.00  0.00     0.002 C 
ENDROOT
BRANCH   1   2
HETATM    2  C   LIG     1      76.463  -1.688  27.866  1.00  0.00     0.027 C 
BRANCH   2   3
HETATM    3  C   LIG     1      75.891  -2.099  26.513  1.00  0.00     0.175 C 
BRANCH   3   4
HETATM    4  O   LIG     1      74.793  -1.217  26.265  1.00  0.00    -0.351 OA
BRANCH   4   5
HETATM    5  C   LIG     1      74.702  -0.620  25.042  1.00  0.00     0.070 A 
HETATM    6  C   LIG     1      73.430  -0.684  24.465  1.00  0.00     0.066 A 
HETATM    7  C   LIG     1      73.201  -0.137  23.205  1.00  0.00     0.043 A 
HETATM    8  C   LIG     1      74.231   0.504  22.513  1.00  0.00    -0.031 A 
HETATM    9  N   LIG     1      71.925  -0.211  22.638  1.00  0.00    -0.327 N 
HETATM   10  C   LIG     1      73.923   1.183  21.208  1.00  0.00     0.050 C 
HETATM   11  C   LIG     1      75.497   0.593  23.102  1.00  0.00     0.012 A 
HETATM   12  C   LIG     1      72.815   0.460  20.457  1.00  0.00     0.108 C 
HETATM   13  C   LIG     1      71.637   0.145  21.348  1.00  0.00     0.222 C 
HETATM   14  O   LIG     1      70.484   0.099  20.922  1.00  0.00    -0.273 OA
HETATM   15  C   LIG     1      75.735   0.024  24.360  1.00  0.00     0.037 A 
HETATM   16  H   LIG     1      71.147  -0.550  23.188  1.00  0.00     0.169 HD
ENDBRANCH   4   5
ENDBRANCH   3   4
ENDBRANCH   2   3
ENDBRANCH   1   2
BRANCH   1  17
HETATM   17  C   LIG     1      75.769  -2.458  30.136  1.00  0.00     0.005 C 
BRANCH  17  18
HETATM   18  C   LIG     1      74.915  -2.279  31.405  1.00  0.00    -0.012 C 
HETATM   19  C   LIG     1      73.433  -2.364  31.018  1.00  0.00     0.024 C 
HETATM   20  C   LIG     1      72.495  -2.185  32.214  1.00  0.00     0.123 C 
HETATM   21  N   LIG     1      73.000  -2.867  33.408  1.00  0.00    -0.379 N 
HETATM   22  C   LIG     1      74.019  -3.895  33.196  1.00  0.00     0.123 C 
HETATM   23  C   LIG     1      75.254  -3.296  32.514  1.00  0.00     0.024 C 
BRANCH  21  24
HETATM   24  C   LIG     1      72.532  -2.562  34.686  1.00  0.00     0.053 A 
HETATM   25  C   LIG     1      72.361  -1.255  35.222  1.00  0.00     0.082 A 
HETATM   26  C   LIG     1      71.891  -1.071  36.543  1.00  0.00     0.058 A 
HETATM   27 CL   LIG     1      72.614   0.174  34.256  1.00  0.00    -0.080 Cl
HETATM   28  C   LIG     1      71.575  -2.163  37.348  1.00  0.00     0.026 A 
HETATM   29 CL   LIG     1      71.662   0.498  37.251  1.00  0.00    -0.082 Cl
HETATM   30  C   LIG     1      71.729  -3.447  36.851  1.00  0.00     0.004 A 
HETATM   31  C   LIG     1      72.204  -3.635  35.549  1.00  0.00     0.031 A 
ENDBRANCH  21  24
ENDBRANCH  17  18
ENDBRANCH   1  17
TORSDOF 7
ENDMDL
MODEL 9
REMARK VINA RESULT:     -10.3      7.645     13.584
REMARK  7 active torsions:
REMARK  status: ('A' for Active; 'I' for Inactive)
REMARK    1  A    between atoms: C_10  and  O_13 
REMARK    2  A    between atoms: O_13  and  C_14 
REMARK    3  A    between atoms: C_14  and  C_15 
REMARK    4  A    between atoms: C_15  and  C_16 
REMARK    5  A    between atoms: C_16  and  C_17 
REMARK    6  A    between atoms: C_17  and  C_18 
REMARK    7  A    between atoms: N_21  and  C_24 
ROOT
HETATM    1  C   LIG     1      76.237  -1.809  28.276  1.00  0.00     0.002 C 
ENDROOT
BRANCH   1   2
HETATM    2  C   LIG     1      77.058  -2.536  27.209  1.00  0.00     0.027 C 
BRANCH   2   3
HETATM    3  C   LIG     1      77.362  -1.693  25.974  1.00  0.00     0.175 C 
BRANCH   3   4
HETATM    4  O   LIG     1      76.454  -2.136  24.962  1.00  0.00    -0.351 OA
BRANCH   4   5
HETATM    5  C   LIG     1      75.957  -1.216  24.086  1.00  0.00     0.070 A 
HETATM    6  C   LIG     1      74.785  -1.616  23.437  1.00  0.00     0.066 A 
HETATM    7  C   LIG     1      74.183  -0.783  22.497  1.00  0.00     0.043 A 
HETATM    8  C   LIG     1      74.727   0.471  22.210  1.00  0.00    -0.031 A 
HETATM    9  N   LIG     1      73.013  -1.196  21.853  1.00  0.00    -0.327 N 
HETATM   10  C   LIG     1      73.991   1.392  21.277  1.00  0.00     0.050 C 
HETATM   11  C   LIG     1      75.885   0.883  22.880  1.00  0.00     0.012 A 
HETATM   12  C   LIG     1      73.236   0.610  20.213  1.00  0.00     0.108 C 
HETATM   13  C   LIG     1      72.439  -0.530  20.803  1.00  0.00     0.222 C 
HETATM   14  O   LIG     1      71.384  -0.921  20.307  1.00  0.00    -0.273 OA
HETATM   15  C   LIG     1      76.503   0.037  23.810  1.00  0.00     0.037 A 
HETATM   16  H   LIG     1      72.540  -2.038  22.153  1.00  0.00     0.169 HD
ENDBRANCH   4   5
ENDBRANCH   3   4
ENDBRANCH   2   3
ENDBRANCH   1   2
BRANCH   1  17
HETATM   17  C   LIG     1      76.473  -2.480  29.634  1.00  0.00     0.005 C 
BRANCH  17  18
HETATM   18  C   LIG     1      75.461  -2.114  30.736  1.00  0.00    -0.012 C 
HETATM   19  C   LIG     1      74.050  -2.471  30.249  1.00  0.00     0.024 C 
HETATM   20  C   LIG     1      72.965  -2.132  31.273  1.00  0.00     0.123 C 
HETATM   21  N   LIG     1      73.390  -2.445  32.639  1.00  0.00    -0.379 N 
HETATM   22  C   LIG     1      74.522  -3.360  32.783  1.00  0.00     0.123 C 
HETATM   23  C   LIG     1      75.765  -2.790  32.089  1.00  0.00     0.024 C 
BRANCH  21  24
HETATM   24  C   LIG     1      72.746  -1.907  33.754  1.00  0.00     0.053 A 
HETATM   25  C   LIG     1      72.199  -2.647  34.840  1.00  0.00     0.082 A 
HETATM   26  C   LIG     1      71.553  -1.988  35.912  1.00  0.00     0.058 A 
HETATM   27 CL   LIG     1      72.386  -4.376  34.959  1.00  0.00    -0.080 Cl
HETATM   28  C   LIG     1      71.447  -0.599  35.937  1.00  0.00     0.026 A 
HETATM   29 CL   LIG     1      70.868  -2.836  37.263  1.00  0.00    -0.082 Cl
HETATM   30  C   LIG     1      71.974   0.146  34.894  1.00  0.00     0.004 A 
HETATM   31  C   LIG     1      72.603  -0.501  33.826  1.00  0.00     0.031 A 
ENDBRANCH  21  24
ENDBRANCH  17  18
ENDBRANCH   1  17
TORSDOF 7
ENDMDL
MODEL 10
REMARK VINA RESULT:     -10.3      7.211     13.024
REMARK  7 active torsions:
REMARK  status: ('A' for Active; 'I' for Inactive)
REMARK    1  A    between atoms: C_10  and  O_13 
REMARK    2  A    between atoms: O_13  and  C_14 
REMARK    3  A    between atoms: C_14  and  C_15 
REMARK    4  A    between atoms: C_15  and  C_16 
REMARK    5  A    between atoms: C_16  and  C_17 
REMARK    6  A    between atoms: C_17  and  C_18 
REMARK    7  A    between atoms: N_21  and  C_24 
ROOT
HETATM    1  C   LIG     1      74.964  -1.135  28.828  1.00  0.00     0.002 C 
ENDROOT
BRANCH   1   2
HETATM    2  C   LIG     1      76.189  -1.726  28.127  1.00  0.00     0.027 C 
BRANCH   2   3
HETATM    3  C   LIG     1      76.088  -1.745  26.604  1.00  0.00     0.175 C 
BRANCH   3   4
HETATM    4  O   LIG     1      74.896  -1.026  26.280  1.00  0.00    -0.351 OA
BRANCH   4   5
HETATM    5  C   LIG     1      74.785  -0.479  25.035  1.00  0.00     0.070 A 
HETATM    6  C   LIG     1      73.505  -0.572  24.479  1.00  0.00     0.066 A 
HETATM    7  C   LIG     1      73.256  -0.077  23.202  1.00  0.00     0.043 A 
HETATM    8  C   LIG     1      74.273   0.541  22.470  1.00  0.00    -0.031 A 
HETATM    9  N   LIG     1      71.973  -0.179  22.657  1.00  0.00    -0.327 N 
HETATM   10  C   LIG     1      73.944   1.166  21.144  1.00  0.00     0.050 C 
HETATM   11  C   LIG     1      75.547   0.659  23.038  1.00  0.00     0.012 A 
HETATM   12  C   LIG     1      72.830   0.408  20.438  1.00  0.00     0.108 C 
HETATM   13  C   LIG     1      71.665   0.123  21.357  1.00  0.00     0.222 C 
HETATM   14  O   LIG     1      70.507   0.055  20.949  1.00  0.00    -0.273 OA
HETATM   15  C   LIG     1      75.805   0.142  24.314  1.00  0.00     0.037 A 
HETATM   16  H   LIG     1      71.204  -0.499  23.230  1.00  0.00     0.169 HD
ENDBRANCH   4   5
ENDBRANCH   3   4
ENDBRANCH   2   3
ENDBRANCH   1   2
BRANCH   1  17
HETATM   17  C   LIG     1      74.256  -2.241  29.618  1.00  0.00     0.005 C 
BRANCH  17  18
HETATM   18  C   LIG     1      73.584  -1.791  30.928  1.00  0.00    -0.012 C 
HETATM   19  C   LIG     1      72.072  -2.030  30.815  1.00  0.00     0.024 C 
HETATM   20  C   LIG     1      71.307  -1.601  32.068  1.00  0.00     0.123 C 
HETATM   21  N   LIG     1      72.033  -1.945  33.293  1.00  0.00    -0.379 N 
HETATM   22  C   LIG     1      73.088  -2.950  33.171  1.00  0.00     0.123 C 
HETATM   23  C   LIG     1      74.160  -2.487  32.178  1.00  0.00     0.024 C 
BRANCH  21  24
HETATM   24  C   LIG     1      71.732  -1.354  34.521  1.00  0.00     0.053 A 
HETATM   25  C   LIG     1      71.013  -1.963  35.587  1.00  0.00     0.082 A 
HETATM   26  C   LIG     1      70.755  -1.254  36.783  1.00  0.00     0.058 A 
HETATM   27 CL   LIG     1      70.509  -3.630  35.519  1.00  0.00    -0.080 Cl
HETATM   28  C   LIG     1      71.209   0.052  36.952  1.00  0.00     0.026 A 
HETATM   29 CL   LIG     1      69.885  -1.944  38.118  1.00  0.00    -0.082 Cl
HETATM   30  C   LIG     1      71.915   0.668  35.931  1.00  0.00     0.004 A 
HETATM   31  C   LIG     1      72.162  -0.024  34.741  1.00  0.00     0.031 A 
ENDBRANCH  21  24
ENDBRANCH  17  18
ENDBRANCH   1  17
TORSDOF 7
ENDMDL
