REMARK  3 active torsions:
REMARK  status: ('A' for Active; 'I' for Inactive)
REMARK    1  A    between atoms: C_2  and  C_4 
REMARK    2  A    between atoms: C_19  and  O_28 
REMARK    3  A    between atoms: C_20  and  O_26 
ROOT
ATOM      1  C           0       5.430   0.465   0.621  0.00  0.00     0.161 C 
ATOM      2  C           0       4.214   1.042  -0.149  0.00  0.00     0.081 C 
ATOM      3  C           0       3.183  -0.036   0.051  0.00  0.00     0.012 A 
ATOM      4  C           0       3.856  -1.175   0.505  0.00  0.00     0.079 A 
ATOM      5  O           0       5.182  -0.954   0.606  0.00  0.00    -0.341 OA
ATOM      6  C           0       3.151  -2.353   0.790  0.00  0.00     0.038 A 
ATOM      7  C           0       1.794  -2.343   0.600  0.00  0.00     0.021 A 
ATOM      8  C           0       1.122  -1.207   0.143  0.00  0.00     0.045 A 
ATOM      9  C           0       1.813  -0.012  -0.146  0.00  0.00     0.092 A 
ATOM     10  O           0       1.217   1.112  -0.595  0.00  0.00    -0.341 OA
ATOM     11  C           0      -0.118   1.164  -0.131  0.00  0.00     0.169 C 
ATOM     12  C           0      -0.849   2.440  -0.535  0.00  0.00     0.209 C 
ATOM     13  O           0      -2.067   2.523   0.190  0.00  0.00    -0.348 OA
ATOM     14  C           0      -2.834   1.419   0.031  0.00  0.00     0.079 A 
ATOM     15  C           0      -4.197   1.561   0.305  0.00  0.00     0.077 A 
ATOM     16  C           0      -5.058   0.488   0.188  0.00  0.00     0.104 A 
ATOM     17  C           0      -4.569  -0.754  -0.206  0.00  0.00     0.102 A 
ATOM     18  C           0      -3.221  -0.898  -0.483  0.00  0.00     0.050 A 
ATOM     19  C           0      -2.361   0.183  -0.373  0.00  0.00    -0.008 A 
ATOM     20  C           0      -0.911  -0.016  -0.723  0.00  0.00     0.128 C 
ATOM     21  C           0      -0.345  -1.249  -0.041  0.00  0.00     0.173 C 
ATOM     22  O           0      -1.032  -2.182   0.318  0.00  0.00    -0.291 OA
ENDROOT
BRANCH   1  23
ATOM     23  C           0       6.716   0.788  -0.096  0.00  0.00    -0.064 C 
ATOM     24  C           0       6.985   0.207  -1.460  0.00  0.00     0.045 C 
ATOM     25  C           0       7.599   1.575   0.467  0.00  0.00     0.016 C 
ENDBRANCH   1  23
BRANCH  17  26
ATOM     26  O           0      -5.409  -1.819  -0.316  0.00  0.00    -0.353 OA
ATOM     27  C           0      -4.614  -2.931  -0.732  0.00  0.00     0.210 C 
ENDBRANCH  17  26
BRANCH  16  28
ATOM     28  O           0      -6.382   0.644   0.456  0.00  0.00    -0.353 OA
ATOM     29  C           0      -6.569   2.011   0.827  0.00  0.00     0.210 C 
ENDBRANCH  16  28
TORSDOF 3
