MODEL 1
REMARK VINA RESULT:     -10.8      0.000      0.000
REMARK  3 active torsions:
REMARK  status: ('A' for Active; 'I' for Inactive)
REMARK    1  A    between atoms: C_2  and  C_4 
REMARK    2  A    between atoms: C_19  and  O_28 
REMARK    3  A    between atoms: C_20  and  O_26 
ROOT
ATOM      1  C           0      72.534  -3.476  34.108  0.00  0.00     0.161 C 
ATOM      2  C           0      72.293  -2.362  33.056  0.00  0.00     0.081 C 
ATOM      3  C           0      73.551  -2.438  32.233  0.00  0.00     0.012 A 
ATOM      4  C           0      74.480  -3.187  32.963  0.00  0.00     0.079 A 
ATOM      5  O           0      73.970  -3.583  34.146  0.00  0.00    -0.341 OA
ATOM      6  C           0      75.758  -3.439  32.443  0.00  0.00     0.038 A 
ATOM      7  C           0      76.056  -2.920  31.210  0.00  0.00     0.021 A 
ATOM      8  C           0      75.130  -2.169  30.483  0.00  0.00     0.045 A 
ATOM      9  C           0      73.839  -1.908  30.987  0.00  0.00     0.092 A 
ATOM     10  O           0      72.907  -1.185  30.332  0.00  0.00    -0.341 OA
ATOM     11  C           0      73.111  -1.294  28.937  0.00  0.00     0.169 C 
ATOM     12  C           0      72.057  -0.561  28.113  0.00  0.00     0.209 C 
ATOM     13  O           0      72.185  -0.946  26.752  0.00  0.00    -0.348 OA
ATOM     14  C           0      73.438  -0.746  26.279  0.00  0.00     0.079 A 
ATOM     15  C           0      73.574  -0.655  24.892  0.00  0.00     0.077 A 
ATOM     16  C           0      74.814  -0.468  24.313  0.00  0.00     0.104 A 
ATOM     17  C           0      75.946  -0.370  25.115  0.00  0.00     0.102 A 
ATOM     18  C           0      75.816  -0.456  26.490  0.00  0.00     0.050 A 
ATOM     19  C           0      74.569  -0.634  27.068  0.00  0.00    -0.008 A 
ATOM     20  C           0      74.475  -0.682  28.570  0.00  0.00     0.128 C 
ATOM     21  C           0      75.502  -1.635  29.155  0.00  0.00     0.173 C 
ATOM     22  O           0      76.532  -1.931  28.586  0.00  0.00    -0.291 OA
ENDROOT
BRANCH   1  23
ATOM     23  C           0      71.995  -3.063  35.454  0.00  0.00    -0.064 C 
ATOM     24  C           0      70.669  -3.596  35.930  0.00  0.00     0.045 C 
ATOM     25  C           0      72.682  -2.242  36.209  0.00  0.00     0.016 C 
ENDBRANCH   1  23
BRANCH  17  26
ATOM     26  O           0      77.173  -0.195  24.553  0.00  0.00    -0.353 OA
ATOM     27  C           0      77.893  -1.414  24.743  0.00  0.00     0.210 C 
ENDBRANCH  17  26
BRANCH  16  28
ATOM     28  O           0      74.928  -0.378  22.961  0.00  0.00    -0.353 OA
ATOM     29  C           0      74.723  -1.694  22.442  0.00  0.00     0.210 C 
ENDBRANCH  16  28
TORSDOF 3
ENDMDL
MODEL 2
REMARK VINA RESULT:     -10.8      1.201      1.443
REMARK  3 active torsions:
REMARK  status: ('A' for Active; 'I' for Inactive)
REMARK    1  A    between atoms: C_2  and  C_4 
REMARK    2  A    between atoms: C_19  and  O_28 
REMARK    3  A    between atoms: C_20  and  O_26 
ROOT
ATOM      1  C           0      72.362  -2.458  33.353  0.00  0.00     0.161 C 
ATOM      2  C           0      72.325  -1.545  32.101  0.00  0.00     0.081 C 
ATOM      3  C           0      73.636  -1.875  31.440  0.00  0.00     0.012 A 
ATOM      4  C           0      74.420  -2.546  32.384  0.00  0.00     0.079 A 
ATOM      5  O           0      73.772  -2.671  33.560  0.00  0.00    -0.341 OA
ATOM      6  C           0      75.708  -2.992  32.054  0.00  0.00     0.038 A 
ATOM      7  C           0      76.162  -2.739  30.787  0.00  0.00     0.021 A 
ATOM      8  C           0      75.381  -2.066  29.844  0.00  0.00     0.045 A 
ATOM      9  C           0      74.083  -1.612  30.156  0.00  0.00     0.092 A 
ATOM     10  O           0      73.288  -0.952  29.289  0.00  0.00    -0.341 OA
ATOM     11  C           0      73.601  -1.337  27.964  0.00  0.00     0.169 C 
ATOM     12  C           0      72.701  -0.690  26.918  0.00  0.00     0.209 C 
ATOM     13  O           0      72.910  -1.332  25.669  0.00  0.00    -0.348 OA
ATOM     14  C           0      74.213  -1.325  25.301  0.00  0.00     0.079 A 
ATOM     15  C           0      74.478  -1.506  23.941  0.00  0.00     0.077 A 
ATOM     16  C           0      75.776  -1.532  23.470  0.00  0.00     0.104 A 
ATOM     17  C           0      76.838  -1.376  24.356  0.00  0.00     0.102 A 
ATOM     18  C           0      76.580  -1.192  25.703  0.00  0.00     0.050 A 
ATOM     19  C           0      75.276  -1.158  26.171  0.00  0.00    -0.008 A 
ATOM     20  C           0      75.046  -0.916  27.638  0.00  0.00     0.128 C 
ATOM     21  C           0      75.919  -1.822  28.488  0.00  0.00     0.173 C 
ATOM     22  O           0      76.961  -2.301  28.092  0.00  0.00    -0.291 OA
ENDROOT
BRANCH   1  23
ATOM     23  C           0      71.750  -1.759  34.540  0.00  0.00    -0.064 C 
ATOM     24  C           0      72.039  -0.300  34.787  0.00  0.00     0.045 C 
ATOM     25  C           0      70.966  -2.419  35.356  0.00  0.00     0.016 C 
ENDBRANCH   1  23
BRANCH  17  26
ATOM     26  O           0      78.121  -1.408  23.903  0.00  0.00    -0.353 OA
ATOM     27  C           0      78.967  -1.294  25.048  0.00  0.00     0.210 C 
ENDBRANCH  17  26
BRANCH  16  28
ATOM     28  O           0      76.017  -1.706  22.144  0.00  0.00    -0.353 OA
ATOM     29  C           0      75.508  -0.550  21.477  0.00  0.00     0.210 C 
ENDBRANCH  16  28
TORSDOF 3
ENDMDL
MODEL 3
REMARK VINA RESULT:     -10.2      1.536      8.930
REMARK  3 active torsions:
REMARK  status: ('A' for Active; 'I' for Inactive)
REMARK    1  A    between atoms: C_2  and  C_4 
REMARK    2  A    between atoms: C_19  and  O_28 
REMARK    3  A    between atoms: C_20  and  O_26 
ROOT
ATOM      1  C           0      75.624  -1.959  25.398  0.00  0.00     0.161 C 
ATOM      2  C           0      76.082  -1.821  26.874  0.00  0.00     0.081 C 
ATOM      3  C           0      74.772  -1.608  27.583  0.00  0.00     0.012 A 
ATOM      4  C           0      73.821  -1.283  26.611  0.00  0.00     0.079 A 
ATOM      5  O           0      74.368  -1.255  25.379  0.00  0.00    -0.341 OA
ATOM      6  C           0      72.489  -1.034  26.972  0.00  0.00     0.038 A 
ATOM      7  C           0      72.165  -1.113  28.301  0.00  0.00     0.021 A 
ATOM      8  C           0      73.116  -1.432  29.273  0.00  0.00     0.045 A 
ATOM      9  C           0      74.459  -1.690  28.930  0.00  0.00     0.092 A 
ATOM     10  O           0      75.420  -1.997  29.826  0.00  0.00    -0.341 OA
ATOM     11  C           0      74.842  -2.642  30.944  0.00  0.00     0.169 C 
ATOM     12  C           0      75.867  -3.089  31.981  0.00  0.00     0.209 C 
ATOM     13  O           0      75.233  -3.949  32.916  0.00  0.00    -0.348 OA
ATOM     14  C           0      74.145  -3.376  33.483  0.00  0.00     0.079 A 
ATOM     15  C           0      73.720  -3.913  34.701  0.00  0.00     0.077 A 
ATOM     16  C           0      72.610  -3.407  35.349  0.00  0.00     0.104 A 
ATOM     17  C           0      71.901  -2.350  34.786  0.00  0.00     0.102 A 
ATOM     18  C           0      72.321  -1.812  33.583  0.00  0.00     0.050 A 
ATOM     19  C           0      73.440  -2.316  32.940  0.00  0.00    -0.008 A 
ATOM     20  C           0      73.879  -1.671  31.653  0.00  0.00     0.128 C 
ATOM     21  C           0      72.712  -1.508  30.694  0.00  0.00     0.173 C 
ATOM     22  O           0      71.558  -1.444  31.060  0.00  0.00    -0.291 OA
ENDROOT
BRANCH   1  23
ATOM     23  C           0      76.616  -1.305  24.470  0.00  0.00    -0.064 C 
ATOM     24  C           0      78.090  -1.368  24.776  0.00  0.00     0.045 C 
ATOM     25  C           0      76.195  -0.681  23.398  0.00  0.00     0.016 C 
ENDBRANCH   1  23
BRANCH  17  26
ATOM     26  O           0      70.801  -1.851  35.414  0.00  0.00    -0.353 OA
ATOM     27  C           0      71.188  -0.606  35.997  0.00  0.00     0.210 C 
ENDBRANCH  17  26
BRANCH  16  28
ATOM     28  O           0      72.212  -3.940  36.535  0.00  0.00    -0.353 OA
ATOM     29  C           0      71.364  -5.047  36.225  0.00  0.00     0.210 C 
ENDBRANCH  16  28
TORSDOF 3
ENDMDL
MODEL 4
REMARK VINA RESULT:      -9.9      3.981     11.064
REMARK  3 active torsions:
REMARK  status: ('A' for Active; 'I' for Inactive)
REMARK    1  A    between atoms: C_2  and  C_4 
REMARK    2  A    between atoms: C_19  and  O_28 
REMARK    3  A    between atoms: C_20  and  O_26 
ROOT
ATOM      1  C           0      74.613  -2.211  31.228  0.00  0.00     0.161 C 
ATOM      2  C           0      73.542  -1.389  31.991  0.00  0.00     0.081 C 
ATOM      3  C           0      73.258  -2.275  33.174  0.00  0.00     0.012 A 
ATOM      4  C           0      73.786  -3.537  32.883  0.00  0.00     0.079 A 
ATOM      5  O           0      74.358  -3.561  31.663  0.00  0.00    -0.341 OA
ATOM      6  C           0      73.682  -4.584  33.810  0.00  0.00     0.038 A 
ATOM      7  C           0      73.042  -4.323  34.993  0.00  0.00     0.021 A 
ATOM      8  C           0      72.510  -3.064  35.282  0.00  0.00     0.045 A 
ATOM      9  C           0      72.608  -1.998  34.364  0.00  0.00     0.092 A 
ATOM     10  O           0      72.109  -0.765  34.588  0.00  0.00    -0.341 OA
ATOM     11  C           0      72.091  -0.500  35.977  0.00  0.00     0.169 C 
ATOM     12  C           0      71.605   0.904  36.318  0.00  0.00     0.209 C 
ATOM     13  O           0      71.874   1.166  37.688  0.00  0.00    -0.348 OA
ATOM     14  C           0      71.342   0.225  38.503  0.00  0.00     0.079 A 
ATOM     15  C           0      71.148   0.593  39.837  0.00  0.00     0.077 A 
ATOM     16  C           0      70.626  -0.303  40.749  0.00  0.00     0.104 A 
ATOM     17  C           0      70.289  -1.590  40.343  0.00  0.00     0.102 A 
ATOM     18  C           0      70.476  -1.957  39.022  0.00  0.00     0.050 A 
ATOM     19  C           0      70.991  -1.053  38.107  0.00  0.00    -0.008 A 
ATOM     20  C           0      71.138  -1.489  36.674  0.00  0.00     0.128 C 
ATOM     21  C           0      71.833  -2.836  36.577  0.00  0.00     0.173 C 
ATOM     22  O           0      71.830  -3.649  37.477  0.00  0.00    -0.291 OA
ENDROOT
BRANCH   1  23
ATOM     23  C           0      74.419  -2.086  29.739  0.00  0.00    -0.064 C 
ATOM     24  C           0      75.576  -1.692  28.858  0.00  0.00     0.045 C 
ATOM     25  C           0      73.243  -2.320  29.210  0.00  0.00     0.016 C 
ENDBRANCH   1  23
BRANCH  17  26
ATOM     26  O           0      69.782  -2.482  41.237  0.00  0.00    -0.353 OA
ATOM     27  C           0      68.412  -2.131  41.439  0.00  0.00     0.210 C 
ENDBRANCH  17  26
BRANCH  16  28
ATOM     28  O           0      70.441   0.072  42.043  0.00  0.00    -0.353 OA
ATOM     29  C           0      70.976   1.391  42.171  0.00  0.00     0.210 C 
ENDBRANCH  16  28
TORSDOF 3
ENDMDL
MODEL 5
REMARK VINA RESULT:      -9.8      1.213      1.373
REMARK  3 active torsions:
REMARK  status: ('A' for Active; 'I' for Inactive)
REMARK    1  A    between atoms: C_2  and  C_4 
REMARK    2  A    between atoms: C_19  and  O_28 
REMARK    3  A    between atoms: C_20  and  O_26 
ROOT
ATOM      1  C           0      71.599  -2.976  34.829  0.00  0.00     0.161 C 
ATOM      2  C           0      71.576  -2.025  33.605  0.00  0.00     0.081 C 
ATOM      3  C           0      72.869  -2.374  32.919  0.00  0.00     0.012 A 
ATOM      4  C           0      73.642  -3.097  33.833  0.00  0.00     0.079 A 
ATOM      5  O           0      73.004  -3.239  35.012  0.00  0.00    -0.341 OA
ATOM      6  C           0      74.912  -3.572  33.475  0.00  0.00     0.038 A 
ATOM      7  C           0      75.360  -3.294  32.210  0.00  0.00     0.021 A 
ATOM      8  C           0      74.590  -2.568  31.298  0.00  0.00     0.045 A 
ATOM      9  C           0      73.310  -2.085  31.639  0.00  0.00     0.092 A 
ATOM     10  O           0      72.526  -1.375  30.801  0.00  0.00    -0.341 OA
ATOM     11  C           0      72.813  -1.728  29.462  0.00  0.00     0.169 C 
ATOM     12  C           0      71.922  -1.022  28.446  0.00  0.00     0.209 C 
ATOM     13  O           0      72.097  -1.631  27.176  0.00  0.00    -0.348 OA
ATOM     14  C           0      73.395  -1.653  26.793  0.00  0.00     0.079 A 
ATOM     15  C           0      73.641  -1.800  25.425  0.00  0.00     0.077 A 
ATOM     16  C           0      74.932  -1.850  24.939  0.00  0.00     0.104 A 
ATOM     17  C           0      76.008  -1.755  25.817  0.00  0.00     0.102 A 
ATOM     18  C           0      75.770  -1.604  27.171  0.00  0.00     0.050 A 
ATOM     19  C           0      74.472  -1.545  27.655  0.00  0.00    -0.008 A 
ATOM     20  C           0      74.267  -1.342  29.132  0.00  0.00     0.128 C 
ATOM     21  C           0      75.121  -2.300  29.943  0.00  0.00     0.173 C 
ATOM     22  O           0      76.143  -2.797  29.521  0.00  0.00    -0.291 OA
ENDROOT
BRANCH   1  23
ATOM     23  C           0      71.022  -2.295  36.044  0.00  0.00    -0.064 C 
ATOM     24  C           0      70.875  -0.796  36.068  0.00  0.00     0.045 C 
ATOM     25  C           0      70.648  -3.008  37.077  0.00  0.00     0.016 C 
ENDBRANCH   1  23
BRANCH  17  26
ATOM     26  O           0      77.284  -1.812  25.347  0.00  0.00    -0.353 OA
ATOM     27  C           0      78.122  -2.111  26.465  0.00  0.00     0.210 C 
ENDBRANCH  17  26
BRANCH  16  28
ATOM     28  O           0      75.153  -1.992  23.605  0.00  0.00    -0.353 OA
ATOM     29  C           0      73.902  -2.353  23.016  0.00  0.00     0.210 C 
ENDBRANCH  16  28
TORSDOF 3
ENDMDL
MODEL 6
REMARK VINA RESULT:      -9.7      1.565      8.574
REMARK  3 active torsions:
REMARK  status: ('A' for Active; 'I' for Inactive)
REMARK    1  A    between atoms: C_2  and  C_4 
REMARK    2  A    between atoms: C_19  and  O_28 
REMARK    3  A    between atoms: C_20  and  O_26 
ROOT
ATOM      1  C           0      73.571   0.596  22.557  0.00  0.00     0.161 C 
ATOM      2  C           0      72.862  -0.385  23.526  0.00  0.00     0.081 C 
ATOM      3  C           0      73.858  -0.481  24.650  0.00  0.00     0.012 A 
ATOM      4  C           0      75.068   0.040  24.179  0.00  0.00     0.079 A 
ATOM      5  O           0      74.962   0.442  22.896  0.00  0.00    -0.341 OA
ATOM      6  C           0      76.194   0.092  25.012  0.00  0.00     0.038 A 
ATOM      7  C           0      76.063  -0.390  26.288  0.00  0.00     0.021 A 
ATOM      8  C           0      74.857  -0.913  26.758  0.00  0.00     0.045 A 
ATOM      9  C           0      73.712  -0.971  25.937  0.00  0.00     0.092 A 
ATOM     10  O           0      72.524  -1.471  26.336  0.00  0.00    -0.341 OA
ATOM     11  C           0      72.381  -1.308  27.733  0.00  0.00     0.169 C 
ATOM     12  C           0      71.033  -1.785  28.263  0.00  0.00     0.209 C 
ATOM     13  O           0      70.880  -1.340  29.603  0.00  0.00    -0.348 OA
ATOM     14  C           0      71.909  -1.730  30.392  0.00  0.00     0.079 A 
ATOM     15  C           0      71.666  -1.753  31.768  0.00  0.00     0.077 A 
ATOM     16  C           0      72.658  -2.120  32.655  0.00  0.00     0.104 A 
ATOM     17  C           0      73.918  -2.472  32.181  0.00  0.00     0.102 A 
ATOM     18  C           0      74.161  -2.455  30.819  0.00  0.00     0.050 A 
ATOM     19  C           0      73.161  -2.094  29.930  0.00  0.00    -0.008 A 
ATOM     20  C           0      73.465  -2.130  28.457  0.00  0.00     0.128 C 
ATOM     21  C           0      74.769  -1.416  28.146  0.00  0.00     0.173 C 
ATOM     22  O           0      75.656  -1.273  28.961  0.00  0.00    -0.291 OA
ENDROOT
BRANCH   1  23
ATOM     23  C           0      73.325   0.199  21.124  0.00  0.00    -0.064 C 
ATOM     24  C           0      74.309   0.593  20.053  0.00  0.00     0.045 C 
ATOM     25  C           0      72.256  -0.490  20.810  0.00  0.00     0.016 C 
ENDBRANCH   1  23
BRANCH  17  26
ATOM     26  O           0      74.904  -2.827  33.049  0.00  0.00    -0.353 OA
ATOM     27  C           0      75.996  -3.304  32.261  0.00  0.00     0.210 C 
ENDBRANCH  17  26
BRANCH  16  28
ATOM     28  O           0      72.404  -2.139  33.991  0.00  0.00    -0.353 OA
ATOM     29  C           0      72.291  -0.778  34.409  0.00  0.00     0.210 C 
ENDBRANCH  16  28
TORSDOF 3
ENDMDL
MODEL 7
REMARK VINA RESULT:      -9.7      2.033      5.056
REMARK  3 active torsions:
REMARK  status: ('A' for Active; 'I' for Inactive)
REMARK    1  A    between atoms: C_2  and  C_4 
REMARK    2  A    between atoms: C_19  and  O_28 
REMARK    3  A    between atoms: C_20  and  O_26 
ROOT
ATOM      1  C           0      74.803  -1.725  30.703  0.00  0.00     0.161 C 
ATOM      2  C           0      75.329  -2.241  29.339  0.00  0.00     0.081 C 
ATOM      3  C           0      74.285  -1.719  28.389  0.00  0.00     0.012 A 
ATOM      4  C           0      73.180  -1.337  29.156  0.00  0.00     0.079 A 
ATOM      5  O           0      73.391  -1.563  30.468  0.00  0.00    -0.341 OA
ATOM      6  C           0      72.039  -0.798  28.544  0.00  0.00     0.038 A 
ATOM      7  C           0      72.050  -0.671  27.179  0.00  0.00     0.021 A 
ATOM      8  C           0      73.152  -1.056  26.412  0.00  0.00     0.045 A 
ATOM      9  C           0      74.310  -1.597  27.010  0.00  0.00     0.092 A 
ATOM     10  O           0      75.400  -1.990  26.319  0.00  0.00    -0.341 OA
ATOM     11  C           0      75.508  -1.238  25.126  0.00  0.00     0.169 C 
ATOM     12  C           0      76.755  -1.569  24.313  0.00  0.00     0.209 C 
ATOM     13  O           0      76.914  -0.593  23.294  0.00  0.00    -0.348 OA
ATOM     14  C           0      75.810  -0.477  22.519  0.00  0.00     0.079 A 
ATOM     15  C           0      75.993   0.090  21.255  0.00  0.00     0.077 A 
ATOM     16  C           0      74.925   0.265  20.397  0.00  0.00     0.104 A 
ATOM     17  C           0      73.648  -0.124  20.791  0.00  0.00     0.102 A 
ATOM     18  C           0      73.464  -0.690  22.040  0.00  0.00     0.050 A 
ATOM     19  C           0      74.539  -0.873  22.895  0.00  0.00    -0.008 A 
ATOM     20  C           0      74.292  -1.529  24.226  0.00  0.00     0.128 C 
ATOM     21  C           0      73.114  -0.893  24.943  0.00  0.00     0.173 C 
ATOM     22  O           0      72.223  -0.308  24.363  0.00  0.00    -0.291 OA
ENDROOT
BRANCH   1  23
ATOM     23  C           0      75.048  -2.744  31.787  0.00  0.00    -0.064 C 
ATOM     24  C           0      73.893  -3.280  32.592  0.00  0.00     0.045 C 
ATOM     25  C           0      76.266  -3.163  32.028  0.00  0.00     0.016 C 
ENDBRANCH   1  23
BRANCH  17  26
ATOM     26  O           0      72.588   0.053  19.956  0.00  0.00    -0.353 OA
ATOM     27  C           0      71.416   0.068  20.773  0.00  0.00     0.210 C 
ENDBRANCH  17  26
BRANCH  16  28
ATOM     28  O           0      75.120   0.817  19.170  0.00  0.00    -0.353 OA
ATOM     29  C           0      75.826  -0.151  18.391  0.00  0.00     0.210 C 
ENDBRANCH  16  28
TORSDOF 3
ENDMDL
MODEL 8
REMARK VINA RESULT:      -9.5      1.581      3.440
REMARK  3 active torsions:
REMARK  status: ('A' for Active; 'I' for Inactive)
REMARK    1  A    between atoms: C_2  and  C_4 
REMARK    2  A    between atoms: C_19  and  O_28 
REMARK    3  A    between atoms: C_20  and  O_26 
ROOT
ATOM      1  C           0      73.369  -2.343  33.049  0.00  0.00     0.161 C 
ATOM      2  C           0      74.084  -2.741  31.732  0.00  0.00     0.081 C 
ATOM      3  C           0      73.169  -2.151  30.694  0.00  0.00     0.012 A 
ATOM      4  C           0      71.963  -1.841  31.331  0.00  0.00     0.079 A 
ATOM      5  O           0      71.999  -2.172  32.638  0.00  0.00    -0.341 OA
ATOM      6  C           0      70.905  -1.263  30.614  0.00  0.00     0.038 A 
ATOM      7  C           0      71.099  -1.025  29.279  0.00  0.00     0.021 A 
ATOM      8  C           0      72.302  -1.337  28.641  0.00  0.00     0.045 A 
ATOM      9  C           0      73.378  -1.916  29.346  0.00  0.00     0.092 A 
ATOM     10  O           0      74.558  -2.243  28.781  0.00  0.00    -0.341 OA
ATOM     11  C           0      74.812  -1.395  27.678  0.00  0.00     0.169 C 
ATOM     12  C           0      76.164  -1.649  27.019  0.00  0.00     0.209 C 
ATOM     13  O           0      76.441  -0.592  26.112  0.00  0.00    -0.348 OA
ATOM     14  C           0      75.451  -0.421  25.206  0.00  0.00     0.079 A 
ATOM     15  C           0      75.792   0.249  24.028  0.00  0.00     0.077 A 
ATOM     16  C           0      74.847   0.486  23.049  0.00  0.00     0.104 A 
ATOM     17  C           0      73.536   0.056  23.233  0.00  0.00     0.102 A 
ATOM     18  C           0      73.195  -0.612  24.395  0.00  0.00     0.050 A 
ATOM     19  C           0      74.148  -0.856  25.371  0.00  0.00    -0.008 A 
ATOM     20  C           0      73.736  -1.621  26.600  0.00  0.00     0.128 C 
ATOM     21  C           0      72.460  -1.055  27.198  0.00  0.00     0.173 C 
ATOM     22  O           0      71.645  -0.431  26.551  0.00  0.00    -0.291 OA
ENDROOT
BRANCH   1  23
ATOM     23  C           0      73.484  -3.445  34.072  0.00  0.00    -0.064 C 
ATOM     24  C           0      72.625  -3.417  35.309  0.00  0.00     0.045 C 
ATOM     25  C           0      74.330  -4.427  33.883  0.00  0.00     0.016 C 
ENDBRANCH   1  23
BRANCH  17  26
ATOM     26  O           0      72.596   0.293  22.277  0.00  0.00    -0.353 OA
ATOM     27  C           0      72.210  -0.979  21.753  0.00  0.00     0.210 C 
ENDBRANCH  17  26
BRANCH  16  28
ATOM     28  O           0      75.196   1.137  21.908  0.00  0.00    -0.353 OA
ATOM     29  C           0      75.678   0.146  20.999  0.00  0.00     0.210 C 
ENDBRANCH  16  28
TORSDOF 3
ENDMDL
MODEL 9
REMARK VINA RESULT:      -9.4      1.759      8.452
REMARK  3 active torsions:
REMARK  status: ('A' for Active; 'I' for Inactive)
REMARK    1  A    between atoms: C_2  and  C_4 
REMARK    2  A    between atoms: C_19  and  O_28 
REMARK    3  A    between atoms: C_20  and  O_26 
ROOT
ATOM      1  C           0      74.944  -1.160  23.011  0.00  0.00     0.161 C 
ATOM      2  C           0      73.938  -1.849  23.967  0.00  0.00     0.081 C 
ATOM      3  C           0      74.701  -1.858  25.264  0.00  0.00     0.012 A 
ATOM      4  C           0      76.040  -1.587  24.960  0.00  0.00     0.079 A 
ATOM      5  O           0      76.217  -1.420  23.634  0.00  0.00    -0.341 OA
ATOM      6  C           0      77.003  -1.521  25.977  0.00  0.00     0.038 A 
ATOM      7  C           0      76.584  -1.738  27.263  0.00  0.00     0.021 A 
ATOM      8  C           0      75.248  -2.012  27.567  0.00  0.00     0.045 A 
ATOM      9  C           0      74.265  -2.080  26.559  0.00  0.00     0.092 A 
ATOM     10  O           0      72.963  -2.346  26.794  0.00  0.00    -0.341 OA
ATOM     11  C           0      72.613  -1.911  28.093  0.00  0.00     0.169 C 
ATOM     12  C           0      71.136  -2.111  28.419  0.00  0.00     0.209 C 
ATOM     13  O           0      70.830  -1.410  29.616  0.00  0.00    -0.348 OA
ATOM     14  C           0      71.636  -1.771  30.642  0.00  0.00     0.079 A 
ATOM     15  C           0      71.163  -1.509  31.930  0.00  0.00     0.077 A 
ATOM     16  C           0      71.920  -1.825  33.040  0.00  0.00     0.104 A 
ATOM     17  C           0      73.172  -2.411  32.882  0.00  0.00     0.102 A 
ATOM     18  C           0      73.643  -2.678  31.608  0.00  0.00     0.050 A 
ATOM     19  C           0      72.876  -2.367  30.496  0.00  0.00    -0.008 A 
ATOM     20  C           0      73.416  -2.712  29.134  0.00  0.00     0.128 C 
ATOM     21  C           0      74.849  -2.235  28.974  0.00  0.00     0.173 C 
ATOM     22  O           0      75.596  -2.054  29.912  0.00  0.00    -0.291 OA
ENDROOT
BRANCH   1  23
ATOM     23  C           0      74.887  -1.782  21.639  0.00  0.00    -0.064 C 
ATOM     24  C           0      73.657  -2.536  21.204  0.00  0.00     0.045 C 
ATOM     25  C           0      75.906  -1.666  20.825  0.00  0.00     0.016 C 
ENDBRANCH   1  23
BRANCH  17  26
ATOM     26  O           0      73.929  -2.719  33.970  0.00  0.00    -0.353 OA
ATOM     27  C           0      73.979  -4.145  34.049  0.00  0.00     0.210 C 
ENDBRANCH  17  26
BRANCH  16  28
ATOM     28  O           0      71.443  -1.565  34.287  0.00  0.00    -0.353 OA
ATOM     29  C           0      71.815  -0.221  34.599  0.00  0.00     0.210 C 
ENDBRANCH  16  28
TORSDOF 3
ENDMDL
MODEL 10
REMARK VINA RESULT:      -9.4      1.533      3.048
REMARK  3 active torsions:
REMARK  status: ('A' for Active; 'I' for Inactive)
REMARK    1  A    between atoms: C_2  and  C_4 
REMARK    2  A    between atoms: C_19  and  O_28 
REMARK    3  A    between atoms: C_20  and  O_26 
ROOT
ATOM      1  C           0      72.877  -1.802  34.187  0.00  0.00     0.161 C 
ATOM      2  C           0      73.792  -2.360  33.066  0.00  0.00     0.081 C 
ATOM      3  C           0      72.977  -2.075  31.833  0.00  0.00     0.012 A 
ATOM      4  C           0      71.675  -1.784  32.254  0.00  0.00     0.079 A 
ATOM      5  O           0      71.565  -1.859  33.596  0.00  0.00    -0.341 OA
ATOM      6  C           0      70.678  -1.466  31.321  0.00  0.00     0.038 A 
ATOM      7  C           0      71.027  -1.462  29.996  0.00  0.00     0.021 A 
ATOM      8  C           0      72.326  -1.757  29.574  0.00  0.00     0.045 A 
ATOM      9  C           0      73.343  -2.075  30.498  0.00  0.00     0.092 A 
ATOM     10  O           0      74.611  -2.373  30.148  0.00  0.00    -0.341 OA
ATOM     11  C           0      74.938  -1.723  28.935  0.00  0.00     0.169 C 
ATOM     12  C           0      76.382  -1.949  28.498  0.00  0.00     0.209 C 
ATOM     13  O           0      76.688  -1.056  27.438  0.00  0.00    -0.348 OA
ATOM     14  C           0      75.816  -1.165  26.408  0.00  0.00     0.079 A 
ATOM     15  C           0      76.254  -0.693  25.168  0.00  0.00     0.077 A 
ATOM     16  C           0      75.431  -0.746  24.060  0.00  0.00     0.104 A 
ATOM     17  C           0      74.147  -1.272  24.174  0.00  0.00     0.102 A 
ATOM     18  C           0      73.712  -1.744  25.400  0.00  0.00     0.050 A 
ATOM     19  C           0      74.543  -1.698  26.507  0.00  0.00    -0.008 A 
ATOM     20  C           0      74.037  -2.260  27.808  0.00  0.00     0.128 C 
ATOM     21  C           0      72.650  -1.733  28.131  0.00  0.00     0.173 C 
ATOM     22  O           0      71.879  -1.332  27.285  0.00  0.00    -0.291 OA
ENDROOT
BRANCH   1  23
ATOM     23  C           0      72.947  -2.676  35.414  0.00  0.00    -0.064 C 
ATOM     24  C           0      72.511  -2.133  36.751  0.00  0.00     0.045 C 
ATOM     25  C           0      73.385  -3.906  35.317  0.00  0.00     0.016 C 
ENDBRANCH   1  23
BRANCH  17  26
ATOM     26  O           0      73.326  -1.320  23.090  0.00  0.00    -0.353 OA
ATOM     27  C           0      73.221  -2.694  22.712  0.00  0.00     0.210 C 
ENDBRANCH  17  26
BRANCH  16  28
ATOM     28  O           0      75.873  -0.285  22.860  0.00  0.00    -0.353 OA
ATOM     29  C           0      76.722  -1.298  22.317  0.00  0.00     0.210 C 
ENDBRANCH  16  28
TORSDOF 3
ENDMDL
