MODEL 1
REMARK VINA RESULT:     -10.7      0.000      0.000
REMARK  7 active torsions:
REMARK  status: ('A' for Active; 'I' for Inactive)
REMARK    1  A    between atoms: N1_4  and  C3_9 
REMARK    2  A    between atoms: O1_5  and  C14_21 
REMARK    3  A    between atoms: O1_5  and  C15_22 
REMARK    4  A    between atoms: N2_7  and  C11_18 
REMARK    5  A    between atoms: C11_18  and  C12_19 
REMARK    6  A    between atoms: C12_19  and  C13_20 
REMARK    7  A    between atoms: C13_20  and  C14_21 
ROOT
HETATM    1  C11 9SC B 601      70.526  -2.359  37.579  0.69 32.97     0.251 C 
ENDROOT
BRANCH   1   2
HETATM    2  N2  9SC B 601      71.444  -2.465  36.627  0.69 32.89     0.141 N 
HETATM    3  C8  9SC B 601      71.627  -1.271  36.024  0.69 32.62     0.274 C 
HETATM    4  C7  9SC B 601      72.857  -1.314  35.167  0.69 32.12     0.137 C 
HETATM    5  N1  9SC B 601      72.823  -2.498  34.337  0.69 32.72    -0.344 N 
HETATM    6  C10 9SC B 601      72.198  -3.717  34.838  0.69 32.83     0.137 C 
HETATM    7  C9  9SC B 601      71.072  -3.366  35.760  0.69 32.95     0.274 C 
BRANCH   5   8
HETATM    8  C3  9SC B 601      73.441  -2.487  32.957  0.69 33.61     0.068 A 
HETATM    9  C2  9SC B 601      72.739  -2.076  31.889  0.69 34.54     0.084 A 
HETATM   10 CL2  9SC B 601      71.057  -1.521  32.061  0.69 36.63    -0.080 Cl
HETATM   11  C1  9SC B 601      73.382  -2.077  30.519  0.69 33.25     0.070 A 
HETATM   12 CL1  9SC B 601      72.449  -1.527  29.100  0.69 33.56    -0.081 Cl
HETATM   13  C6  9SC B 601      74.649  -2.491  30.367  0.69 33.15     0.012 A 
HETATM   14  C5  9SC B 601      75.451  -2.964  31.587  0.69 33.54     0.002 A 
HETATM   15  C4  9SC B 601      74.895  -2.964  32.779  0.69 33.82     0.018 A 
ENDBRANCH   5   8
ENDBRANCH   1   2
BRANCH   1  16
HETATM   16  C12 9SC B 601      71.220  -1.782  38.881  0.69 33.14     0.038 C 
BRANCH  16  17
HETATM   17  C13 9SC B 601      70.380  -2.112  40.146  0.69 32.02     0.035 C 
BRANCH  17  18
HETATM   18  C14 9SC B 601      71.175  -1.648  41.380  0.69 30.98     0.149 C 
BRANCH  18  19
HETATM   19  O1  9SC B 601      70.419  -0.672  42.097  0.69 31.49    -0.331 OA
BRANCH  19  20
HETATM   20  C15 9SC B 601      70.562   0.651  41.614  0.69 31.02     0.096 A 
HETATM   21  C16 9SC B 601      71.920   1.283  41.576  0.69 30.63     0.024 A 
HETATM   22  C17 9SC B 601      72.071   2.572  41.107  0.69 30.77    -0.001 A 
HETATM   23  C18 9SC B 601      70.847   3.362  40.622  0.69 30.32    -0.004 A 
HETATM   24  C19 9SC B 601      69.669   2.811  40.652  0.69 30.31     0.081 A 
HETATM   25  C21 9SC B 601      71.072   4.840  40.089  0.69 30.44     0.036 C 
HETATM   26  N3  9SC B 601      68.477   3.523  40.202  0.69 30.27    -0.224 NA
HETATM   27  C20 9SC B 601      69.500   1.330  41.194  0.69 30.88     0.043 A 
HETATM   28  C23 9SC B 601      68.530   4.974  40.015  0.69 29.68     0.190 C 
HETATM   29  O2A 9SC B 601      67.432   5.657  39.597  0.69 29.13    -0.174 OA
HETATM   30  C22 9SC B 601      69.862   5.723  40.296  0.69 30.20     0.079 C 
ENDBRANCH  19  20
ENDBRANCH  18  19
ENDBRANCH  17  18
ENDBRANCH  16  17
ENDBRANCH   1  16
TORSDOF 7
ENDMDL
MODEL 2
REMARK VINA RESULT:     -10.6      0.503      1.013
REMARK  7 active torsions:
REMARK  status: ('A' for Active; 'I' for Inactive)
REMARK    1  A    between atoms: N1_4  and  C3_9 
REMARK    2  A    between atoms: O1_5  and  C14_21 
REMARK    3  A    between atoms: O1_5  and  C15_22 
REMARK    4  A    between atoms: N2_7  and  C11_18 
REMARK    5  A    between atoms: C11_18  and  C12_19 
REMARK    6  A    between atoms: C12_19  and  C13_20 
REMARK    7  A    between atoms: C13_20  and  C14_21 
ROOT
HETATM    1  C11 9SC B 601      71.042  -2.446  38.125  0.69 32.97     0.251 C 
ENDROOT
BRANCH   1   2
HETATM    2  N2  9SC B 601      71.309  -2.429  36.825  0.69 32.89     0.141 N 
HETATM    3  C8  9SC B 601      71.846  -3.608  36.446  0.69 32.62     0.274 C 
HETATM    4  C7  9SC B 601      71.869  -3.702  34.950  0.69 32.12     0.137 C 
HETATM    5  N1  9SC B 601      72.433  -2.489  34.401  0.69 32.72    -0.344 N 
HETATM    6  C10 9SC B 601      72.222  -1.218  35.083  0.69 32.83     0.137 C 
HETATM    7  C9  9SC B 601      72.124  -1.446  36.559  0.69 32.95     0.274 C 
BRANCH   5   8
HETATM    8  C3  9SC B 601      73.232  -2.525  33.117  0.69 33.61     0.068 A 
HETATM    9  C2  9SC B 601      72.697  -2.108  31.958  0.69 34.54     0.084 A 
HETATM   10 CL2  9SC B 601      71.028  -1.492  31.893  0.69 36.63    -0.080 Cl
HETATM   11  C1  9SC B 601      73.518  -2.156  30.688  0.69 33.25     0.070 A 
HETATM   12 CL1  9SC B 601      72.807  -1.600  29.149  0.69 33.56    -0.081 Cl
HETATM   13  C6  9SC B 601      74.778  -2.617  30.715  0.69 33.15     0.012 A 
HETATM   14  C5  9SC B 601      75.389  -3.097  32.038  0.69 33.54     0.002 A 
HETATM   15  C4  9SC B 601      74.678  -3.056  33.143  0.69 33.82     0.018 A 
ENDBRANCH   5   8
ENDBRANCH   1   2
BRANCH   1  16
HETATM   16  C12 9SC B 601      71.893  -1.306  38.824  0.69 33.14     0.038 C 
BRANCH  16  17
HETATM   17  C13 9SC B 601      72.126  -1.634  40.325  0.69 32.02     0.035 C 
BRANCH  17  18
HETATM   18  C14 9SC B 601      70.763  -1.594  41.039  0.69 30.98     0.149 C 
BRANCH  18  19
HETATM   19  O1  9SC B 601      70.792  -0.606  42.070  0.69 31.49    -0.331 OA
BRANCH  19  20
HETATM   20  C15 9SC B 601      70.804   0.729  41.600  0.69 31.02     0.096 A 
HETATM   21  C16 9SC B 601      72.088   1.501  41.590  0.69 30.63     0.024 A 
HETATM   22  C17 9SC B 601      72.111   2.803  41.135  0.69 30.77    -0.001 A 
HETATM   23  C18 9SC B 601      70.818   3.466  40.636  0.69 30.32    -0.004 A 
HETATM   24  C19 9SC B 601      69.704   2.794  40.642  0.69 30.31     0.081 A 
HETATM   25  C21 9SC B 601      70.895   4.964  40.120  0.69 30.44     0.036 C 
HETATM   26  N3  9SC B 601      68.452   3.382  40.179  0.69 30.27    -0.224 NA
HETATM   27  C20 9SC B 601      69.683   1.298  41.168  0.69 30.88     0.043 A 
HETATM   28  C23 9SC B 601      68.355   4.832  40.004  0.69 29.68     0.190 C 
HETATM   29  O2A 9SC B 601      67.197   5.401  39.574  0.69 29.13    -0.174 OA
HETATM   30  C22 9SC B 601      69.597   5.714  40.315  0.69 30.20     0.079 C 
ENDBRANCH  19  20
ENDBRANCH  18  19
ENDBRANCH  17  18
ENDBRANCH  16  17
ENDBRANCH   1  16
TORSDOF 7
ENDMDL
MODEL 3
REMARK VINA RESULT:     -10.2     10.059     16.752
REMARK  7 active torsions:
REMARK  status: ('A' for Active; 'I' for Inactive)
REMARK    1  A    between atoms: N1_4  and  C3_9 
REMARK    2  A    between atoms: O1_5  and  C14_21 
REMARK    3  A    between atoms: O1_5  and  C15_22 
REMARK    4  A    between atoms: N2_7  and  C11_18 
REMARK    5  A    between atoms: C11_18  and  C12_19 
REMARK    6  A    between atoms: C12_19  and  C13_20 
REMARK    7  A    between atoms: C13_20  and  C14_21 
ROOT
HETATM    1  C11 9SC B 601      76.035  -0.578  23.454  0.69 32.97     0.251 C 
ENDROOT
BRANCH   1   2
HETATM    2  N2  9SC B 601      75.356  -0.666  24.590  0.69 32.89     0.141 N 
HETATM    3  C8  9SC B 601      76.045  -0.076  25.590  0.69 32.62     0.274 C 
HETATM    4  C7  9SC B 601      75.163   0.091  26.791  0.69 32.12     0.137 C 
HETATM    5  N1  9SC B 601      74.491  -1.159  27.071  0.69 32.72    -0.344 N 
HETATM    6  C10 9SC B 601      74.128  -2.048  25.974  0.69 32.83     0.137 C 
HETATM    7  C9  9SC B 601      75.126  -1.920  24.866  0.69 32.95     0.274 C 
BRANCH   5   8
HETATM    8  C3  9SC B 601      74.151  -1.546  28.493  0.69 33.61     0.068 A 
HETATM    9  C2  9SC B 601      75.097  -1.998  29.331  0.69 34.54     0.084 A 
HETATM   10 CL2  9SC B 601      76.789  -2.151  28.800  0.69 36.63    -0.080 Cl
HETATM   11  C1  9SC B 601      74.729  -2.381  30.748  0.69 33.25     0.070 A 
HETATM   12 CL1  9SC B 601      75.988  -2.978  31.862  0.69 33.56    -0.081 Cl
HETATM   13  C6  9SC B 601      73.459  -2.273  31.169  0.69 33.15     0.012 A 
HETATM   14  C5  9SC B 601      72.376  -1.760  30.210  0.69 33.54     0.002 A 
HETATM   15  C4  9SC B 601      72.694  -1.427  28.978  0.69 33.82     0.018 A 
ENDBRANCH   5   8
ENDBRANCH   1   2
BRANCH   1  16
HETATM   16  C12 9SC B 601      75.886   0.896  22.894  0.69 33.14     0.038 C 
BRANCH  16  17
HETATM   17  C13 9SC B 601      74.707   0.987  21.886  0.69 32.02     0.035 C 
BRANCH  17  18
HETATM   18  C14 9SC B 601      74.885  -0.131  20.842  0.69 30.98     0.149 C 
BRANCH  18  19
HETATM   19  O1  9SC B 601      73.603  -0.603  20.423  0.69 31.49    -0.331 OA
BRANCH  19  20
HETATM   20  C15 9SC B 601      73.453  -2.009  20.472  0.69 31.02     0.096 A 
HETATM   21  C16 9SC B 601      73.303  -2.694  21.795  0.69 30.63     0.024 A 
HETATM   22  C17 9SC B 601      73.157  -4.064  21.854  0.69 30.77    -0.001 A 
HETATM   23  C18 9SC B 601      73.148  -4.893  20.561  0.69 30.32    -0.004 A 
HETATM   24  C19 9SC B 601      73.275  -4.298  19.412  0.69 30.31     0.081 A 
HETATM   25  C21 9SC B 601      72.974  -6.466  20.680  0.69 30.44     0.036 C 
HETATM   26  N3  9SC B 601      73.273  -5.043  18.157  0.69 30.27    -0.224 NA
HETATM   27  C20 9SC B 601      73.444  -2.721  19.350  0.69 30.88     0.043 A 
HETATM   28  C23 9SC B 601      73.454  -6.495  18.179  0.69 29.68     0.190 C 
HETATM   29  O2A 9SC B 601      73.456  -7.209  17.022  0.69 29.13    -0.174 OA
HETATM   30  C22 9SC B 601      73.641  -7.211  19.546  0.69 30.20     0.079 C 
ENDBRANCH  19  20
ENDBRANCH  18  19
ENDBRANCH  17  18
ENDBRANCH  16  17
ENDBRANCH   1  16
TORSDOF 7
ENDMDL
MODEL 4
REMARK VINA RESULT:     -10.2     10.325     16.823
REMARK  7 active torsions:
REMARK  status: ('A' for Active; 'I' for Inactive)
REMARK    1  A    between atoms: N1_4  and  C3_9 
REMARK    2  A    between atoms: O1_5  and  C14_21 
REMARK    3  A    between atoms: O1_5  and  C15_22 
REMARK    4  A    between atoms: N2_7  and  C11_18 
REMARK    5  A    between atoms: C11_18  and  C12_19 
REMARK    6  A    between atoms: C12_19  and  C13_20 
REMARK    7  A    between atoms: C13_20  and  C14_21 
ROOT
HETATM    1  C11 9SC B 601      75.933  -0.160  22.872  0.69 32.97     0.251 C 
ENDROOT
BRANCH   1   2
HETATM    2  N2  9SC B 601      75.408  -0.333  24.078  0.69 32.89     0.141 N 
HETATM    3  C8  9SC B 601      76.170   0.279  25.009  0.69 32.62     0.274 C 
HETATM    4  C7  9SC B 601      75.433   0.341  26.313  0.69 32.12     0.137 C 
HETATM    5  N1  9SC B 601      74.896  -0.965  26.624  0.69 32.72    -0.344 N 
HETATM    6  C10 9SC B 601      74.467  -1.849  25.546  0.69 32.83     0.137 C 
HETATM    7  C9  9SC B 601      75.308  -1.609  24.332  0.69 32.95     0.274 C 
BRANCH   5   8
HETATM    8  C3  9SC B 601      74.764  -1.420  28.061  0.69 33.61     0.068 A 
HETATM    9  C2  9SC B 601      73.573  -1.413  28.681  0.69 34.54     0.084 A 
HETATM   10 CL2  9SC B 601      72.105  -0.874  27.831  0.69 36.63    -0.080 Cl
HETATM   11  C1  9SC B 601      73.469  -1.871  30.119  0.69 33.25     0.070 A 
HETATM   12 CL1  9SC B 601      71.885  -1.864  30.941  0.69 33.56    -0.081 Cl
HETATM   13  C6  9SC B 601      74.563  -2.282  30.778  0.69 33.15     0.012 A 
HETATM   14  C5  9SC B 601      75.925  -2.287  30.071  0.69 33.54     0.002 A 
HETATM   15  C4  9SC B 601      76.018  -1.889  28.821  0.69 33.82     0.018 A 
ENDBRANCH   5   8
ENDBRANCH   1   2
BRANCH   1  16
HETATM   16  C12 9SC B 601      75.480   1.258  22.329  0.69 33.14     0.038 C 
BRANCH  16  17
HETATM   17  C13 9SC B 601      74.169   1.140  21.505  0.69 32.02     0.035 C 
BRANCH  17  18
HETATM   18  C14 9SC B 601      74.294  -0.086  20.582  0.69 30.98     0.149 C 
BRANCH  18  19
HETATM   19  O1  9SC B 601      73.017  -0.711  20.441  0.69 31.49    -0.331 OA
BRANCH  19  20
HETATM   20  C15 9SC B 601      73.048  -2.125  20.492  0.69 31.02     0.096 A 
HETATM   21  C16 9SC B 601      73.048  -2.820  21.819  0.69 30.63     0.024 A 
HETATM   22  C17 9SC B 601      73.079  -4.198  21.879  0.69 30.77    -0.001 A 
HETATM   23  C18 9SC B 601      73.113  -5.024  20.585  0.69 30.32    -0.004 A 
HETATM   24  C19 9SC B 601      73.109  -4.420  19.433  0.69 30.31     0.081 A 
HETATM   25  C21 9SC B 601      73.145  -6.606  20.706  0.69 30.44     0.036 C 
HETATM   26  N3  9SC B 601      73.141  -5.162  18.177  0.69 30.27    -0.224 NA
HETATM   27  C20 9SC B 601      73.075  -2.835  19.369  0.69 30.88     0.043 A 
HETATM   28  C23 9SC B 601      73.505  -6.580  18.185  0.69 29.68     0.190 C 
HETATM   29  O2A 9SC B 601      73.542  -7.291  17.027  0.69 29.13    -0.174 OA
HETATM   30  C22 9SC B 601      73.845  -7.264  19.539  0.69 30.20     0.079 C 
ENDBRANCH  19  20
ENDBRANCH  18  19
ENDBRANCH  17  18
ENDBRANCH  16  17
ENDBRANCH   1  16
TORSDOF 7
ENDMDL
MODEL 5
REMARK VINA RESULT:     -10.1      1.190      1.627
REMARK  7 active torsions:
REMARK  status: ('A' for Active; 'I' for Inactive)
REMARK    1  A    between atoms: N1_4  and  C3_9 
REMARK    2  A    between atoms: O1_5  and  C14_21 
REMARK    3  A    between atoms: O1_5  and  C15_22 
REMARK    4  A    between atoms: N2_7  and  C11_18 
REMARK    5  A    between atoms: C11_18  and  C12_19 
REMARK    6  A    between atoms: C12_19  and  C13_20 
REMARK    7  A    between atoms: C13_20  and  C14_21 
ROOT
HETATM    1  C11 9SC B 601      70.351  -1.960  37.764  0.69 32.97     0.251 C 
ENDROOT
BRANCH   1   2
HETATM    2  N2  9SC B 601      71.026  -1.983  36.622  0.69 32.89     0.141 N 
HETATM    3  C8  9SC B 601      70.890  -0.805  35.978  0.69 32.62     0.274 C 
HETATM    4  C7  9SC B 601      71.878  -0.719  34.853  0.69 32.12     0.137 C 
HETATM    5  N1  9SC B 601      71.819  -1.934  34.070  0.69 32.72    -0.344 N 
HETATM    6  C10 9SC B 601      71.509  -3.202  34.720  0.69 32.83     0.137 C 
HETATM    7  C9  9SC B 601      70.593  -2.965  35.879  0.69 32.95     0.274 C 
BRANCH   5   8
HETATM    8  C3  9SC B 601      72.088  -1.902  32.582  0.69 33.61     0.068 A 
HETATM    9  C2  9SC B 601      73.332  -2.062  32.101  0.69 34.54     0.084 A 
HETATM   10 CL2  9SC B 601      74.708  -2.323  33.200  0.69 36.63    -0.080 Cl
HETATM   11  C1  9SC B 601      73.574  -2.024  30.608  0.69 33.25     0.070 A 
HETATM   12 CL1  9SC B 601      75.227  -2.239  29.971  0.69 33.56    -0.081 Cl
HETATM   13  C6  9SC B 601      72.551  -1.829  29.762  0.69 33.15     0.012 A 
HETATM   14  C5  9SC B 601      71.130  -1.644  30.311  0.69 33.54     0.002 A 
HETATM   15  C4  9SC B 601      70.917  -1.676  31.608  0.69 33.82     0.018 A 
ENDBRANCH   5   8
ENDBRANCH   1   2
BRANCH   1  16
HETATM   16  C12 9SC B 601      71.379  -1.722  38.947  0.69 33.14     0.038 C 
BRANCH  16  17
HETATM   17  C13 9SC B 601      70.750  -2.117  40.311  0.69 32.02     0.035 C 
BRANCH  17  18
HETATM   18  C14 9SC B 601      71.552  -1.420  41.426  0.69 30.98     0.149 C 
BRANCH  18  19
HETATM   19  O1  9SC B 601      70.713  -0.484  42.104  0.69 31.49    -0.331 OA
BRANCH  19  20
HETATM   20  C15 9SC B 601      70.768   0.833  41.588  0.69 31.02     0.096 A 
HETATM   21  C16 9SC B 601      72.086   1.537  41.492  0.69 30.63     0.024 A 
HETATM   22  C17 9SC B 601      72.151   2.821  40.992  0.69 30.77    -0.001 A 
HETATM   23  C18 9SC B 601      70.870   3.533  40.530  0.69 30.32    -0.004 A 
HETATM   24  C19 9SC B 601      69.726   2.919  40.611  0.69 30.31     0.081 A 
HETATM   25  C21 9SC B 601      70.996   5.007  39.959  0.69 30.44     0.036 C 
HETATM   26  N3  9SC B 601      68.483   3.554  40.186  0.69 30.27    -0.224 NA
HETATM   27  C20 9SC B 601      69.657   1.443  41.189  0.69 30.88     0.043 A 
HETATM   28  C23 9SC B 601      68.449   5.001  39.966  0.69 29.68     0.190 C 
HETATM   29  O2A 9SC B 601      67.302   5.614  39.570  0.69 29.13    -0.174 OA
HETATM   30  C22 9SC B 601      69.747   5.828  40.188  0.69 30.20     0.079 C 
ENDBRANCH  19  20
ENDBRANCH  18  19
ENDBRANCH  17  18
ENDBRANCH  16  17
ENDBRANCH   1  16
TORSDOF 7
ENDMDL
MODEL 6
REMARK VINA RESULT:     -10.1     15.188     20.345
REMARK  7 active torsions:
REMARK  status: ('A' for Active; 'I' for Inactive)
REMARK    1  A    between atoms: N1_4  and  C3_9 
REMARK    2  A    between atoms: O1_5  and  C14_21 
REMARK    3  A    between atoms: O1_5  and  C15_22 
REMARK    4  A    between atoms: N2_7  and  C11_18 
REMARK    5  A    between atoms: C11_18  and  C12_19 
REMARK    6  A    between atoms: C12_19  and  C13_20 
REMARK    7  A    between atoms: C13_20  and  C14_21 
ROOT
HETATM    1  C11 9SC B 601      74.081  -7.683  18.786  0.69 32.97     0.251 C 
ENDROOT
BRANCH   1   2
HETATM    2  N2  9SC B 601      73.678  -8.518  17.836  0.69 32.89     0.141 N 
HETATM    3  C8  9SC B 601      74.011  -9.785  18.160  0.69 32.62     0.274 C 
HETATM    4  C7  9SC B 601      73.304 -10.748  17.253  0.69 32.12     0.137 C 
HETATM    5  N1  9SC B 601      73.475 -10.328  15.880  0.69 32.72    -0.344 N 
HETATM    6  C10 9SC B 601      73.569  -8.907  15.563  0.69 32.83     0.137 C 
HETATM    7  C9  9SC B 601      74.215  -8.177  16.698  0.69 32.95     0.274 C 
BRANCH   5   8
HETATM    8  C3  9SC B 601      73.545 -11.349  14.766  0.69 33.61     0.068 A 
HETATM    9  C2  9SC B 601      74.727 -11.798  14.315  0.69 34.54     0.084 A 
HETATM   10 CL2  9SC B 601      76.255 -11.212  15.015  0.69 36.63    -0.080 Cl
HETATM   11  C1  9SC B 601      74.769 -12.819  13.199  0.69 33.25     0.070 A 
HETATM   12 CL1  9SC B 601      76.340 -13.417  12.601  0.69 33.56    -0.081 Cl
HETATM   13  C6  9SC B 601      73.630 -13.275  12.656  0.69 33.15     0.012 A 
HETATM   14  C5  9SC B 601      72.278 -12.759  13.170  0.69 33.54     0.002 A 
HETATM   15  C4  9SC B 601      72.239 -11.872  14.140  0.69 33.82     0.018 A 
ENDBRANCH   5   8
ENDBRANCH   1   2
BRANCH   1  16
HETATM   16  C12 9SC B 601      73.564  -6.230  18.426  0.69 33.14     0.038 C 
BRANCH  16  17
HETATM   17  C13 9SC B 601      72.841  -5.586  19.641  0.69 32.02     0.035 C 
BRANCH  17  18
HETATM   18  C14 9SC B 601      72.685  -4.080  19.361  0.69 30.98     0.149 C 
BRANCH  18  19
HETATM   19  O1  9SC B 601      73.953  -3.526  19.004  0.69 31.49    -0.331 OA
BRANCH  19  20
HETATM   20  C15 9SC B 601      74.380  -2.461  19.831  0.69 31.02     0.096 A 
HETATM   21  C16 9SC B 601      75.230  -1.370  19.255  0.69 30.63     0.024 A 
HETATM   22  C17 9SC B 601      75.652  -0.326  20.052  0.69 30.77    -0.001 A 
HETATM   23  C18 9SC B 601      75.252  -0.279  21.534  0.69 30.32    -0.004 A 
HETATM   24  C19 9SC B 601      74.512  -1.226  22.033  0.69 30.31     0.081 A 
HETATM   25  C21 9SC B 601      75.760   0.942  22.410  0.69 30.44     0.036 C 
HETATM   26  N3  9SC B 601      74.107  -1.225  23.435  0.69 30.27    -0.224 NA
HETATM   27  C20 9SC B 601      74.030  -2.424  21.112  0.69 30.88     0.043 A 
HETATM   28  C23 9SC B 601      74.788  -0.341  24.383  0.69 29.68     0.190 C 
HETATM   29  O2A 9SC B 601      74.427  -0.325  25.694  0.69 29.13    -0.174 OA
HETATM   30  C22 9SC B 601      75.928   0.581  23.869  0.69 30.20     0.079 C 
ENDBRANCH  19  20
ENDBRANCH  18  19
ENDBRANCH  17  18
ENDBRANCH  16  17
ENDBRANCH   1  16
TORSDOF 7
ENDMDL
MODEL 7
REMARK VINA RESULT:     -10.0     15.049     20.093
REMARK  7 active torsions:
REMARK  status: ('A' for Active; 'I' for Inactive)
REMARK    1  A    between atoms: N1_4  and  C3_9 
REMARK    2  A    between atoms: O1_5  and  C14_21 
REMARK    3  A    between atoms: O1_5  and  C15_22 
REMARK    4  A    between atoms: N2_7  and  C11_18 
REMARK    5  A    between atoms: C11_18  and  C12_19 
REMARK    6  A    between atoms: C12_19  and  C13_20 
REMARK    7  A    between atoms: C13_20  and  C14_21 
ROOT
HETATM    1  C11 9SC B 601      74.023  -7.605  18.775  0.69 32.97     0.251 C 
ENDROOT
BRANCH   1   2
HETATM    2  N2  9SC B 601      73.635  -8.454  17.832  0.69 32.89     0.141 N 
HETATM    3  C8  9SC B 601      73.977  -9.715  18.172  0.69 32.62     0.274 C 
HETATM    4  C7  9SC B 601      73.286 -10.694  17.271  0.69 32.12     0.137 C 
HETATM    5  N1  9SC B 601      73.465 -10.287  15.894  0.69 32.72    -0.344 N 
HETATM    6  C10 9SC B 601      73.550  -8.870  15.562  0.69 32.83     0.137 C 
HETATM    7  C9  9SC B 601      74.179  -8.121  16.694  0.69 32.95     0.274 C 
BRANCH   5   8
HETATM    8  C3  9SC B 601      73.554 -11.321  14.793  0.69 33.61     0.068 A 
HETATM    9  C2  9SC B 601      74.744 -11.773  14.364  0.69 34.54     0.084 A 
HETATM   10 CL2  9SC B 601      76.259 -11.176  15.082  0.69 36.63    -0.080 Cl
HETATM   11  C1  9SC B 601      74.804 -12.805  13.260  0.69 33.25     0.070 A 
HETATM   12 CL1  9SC B 601      76.385 -13.407  12.693  0.69 33.56    -0.081 Cl
HETATM   13  C6  9SC B 601      73.674 -13.269  12.705  0.69 33.15     0.012 A 
HETATM   14  C5  9SC B 601      72.314 -12.750  13.193  0.69 33.54     0.002 A 
HETATM   15  C4  9SC B 601      72.259 -11.852  14.152  0.69 33.82     0.018 A 
ENDBRANCH   5   8
ENDBRANCH   1   2
BRANCH   1  16
HETATM   16  C12 9SC B 601      73.488  -6.162  18.400  0.69 33.14     0.038 C 
BRANCH  16  17
HETATM   17  C13 9SC B 601      72.782  -5.502  19.616  0.69 32.02     0.035 C 
BRANCH  17  18
HETATM   18  C14 9SC B 601      72.653  -3.994  19.332  0.69 30.98     0.149 C 
BRANCH  18  19
HETATM   19  O1  9SC B 601      72.081  -3.341  20.466  0.69 31.49    -0.331 OA
BRANCH  19  20
HETATM   20  C15 9SC B 601      72.947  -2.429  21.115  0.69 31.02     0.096 A 
HETATM   21  C16 9SC B 601      73.125  -1.051  20.555  0.69 30.63     0.024 A 
HETATM   22  C17 9SC B 601      73.968  -0.154  21.178  0.69 30.77    -0.001 A 
HETATM   23  C18 9SC B 601      74.725  -0.565  22.450  0.69 30.32    -0.004 A 
HETATM   24  C19 9SC B 601      74.566  -1.761  22.938  0.69 30.31     0.081 A 
HETATM   25  C21 9SC B 601      75.679   0.502  23.133  0.69 30.44     0.036 C 
HETATM   26  N3  9SC B 601      75.264  -2.197  24.143  0.69 30.27    -0.224 NA
HETATM   27  C20 9SC B 601      73.597  -2.789  22.215  0.69 30.88     0.043 A 
HETATM   28  C23 9SC B 601      76.399  -1.419  24.642  0.69 29.68     0.190 C 
HETATM   29  O2A 9SC B 601      77.063  -1.807  25.763  0.69 29.13    -0.174 OA
HETATM   30  C22 9SC B 601      76.831  -0.138  23.875  0.69 30.20     0.079 C 
ENDBRANCH  19  20
ENDBRANCH  18  19
ENDBRANCH  17  18
ENDBRANCH  16  17
ENDBRANCH   1  16
TORSDOF 7
ENDMDL
MODEL 8
REMARK VINA RESULT:      -9.9     12.252     19.174
REMARK  7 active torsions:
REMARK  status: ('A' for Active; 'I' for Inactive)
REMARK    1  A    between atoms: N1_4  and  C3_9 
REMARK    2  A    between atoms: O1_5  and  C14_21 
REMARK    3  A    between atoms: O1_5  and  C15_22 
REMARK    4  A    between atoms: N2_7  and  C11_18 
REMARK    5  A    between atoms: C11_18  and  C12_19 
REMARK    6  A    between atoms: C12_19  and  C13_20 
REMARK    7  A    between atoms: C13_20  and  C14_21 
ROOT
HETATM    1  C11 9SC B 601      74.933  -0.605  21.288  0.69 32.97     0.251 C 
ENDROOT
BRANCH   1   2
HETATM    2  N2  9SC B 601      74.829  -0.678  22.609  0.69 32.89     0.141 N 
HETATM    3  C8  9SC B 601      75.867  -0.043  23.192  0.69 32.62     0.274 C 
HETATM    4  C7  9SC B 601      75.601   0.136  24.656  0.69 32.12     0.137 C 
HETATM    5  N1  9SC B 601      75.167  -1.122  25.222  0.69 32.72    -0.344 N 
HETATM    6  C10 9SC B 601      74.389  -2.052  24.412  0.69 32.83     0.137 C 
HETATM    7  C9  9SC B 601      74.789  -1.929  22.976  0.69 32.95     0.274 C 
BRANCH   5   8
HETATM    8  C3  9SC B 601      75.503  -1.478  26.653  0.69 33.61     0.068 A 
HETATM    9  C2  9SC B 601      74.636  -1.233  27.649  0.69 34.54     0.084 A 
HETATM   10 CL2  9SC B 601      73.055  -0.485  27.318  0.69 36.63    -0.080 Cl
HETATM   11  C1  9SC B 601      74.999  -1.597  29.071  0.69 33.25     0.070 A 
HETATM   12 CL1  9SC B 601      73.844  -1.273  30.393  0.69 33.56    -0.081 Cl
HETATM   13  C6  9SC B 601      76.185  -2.163  29.343  0.69 33.15     0.012 A 
HETATM   14  C5  9SC B 601      77.178  -2.440  28.207  0.69 33.54     0.002 A 
HETATM   15  C4  9SC B 601      76.865  -2.124  26.969  0.69 33.82     0.018 A 
ENDBRANCH   5   8
ENDBRANCH   1   2
BRANCH   1  16
HETATM   16  C12 9SC B 601      75.342  -2.034  20.739  0.69 33.14     0.038 C 
BRANCH  16  17
HETATM   17  C13 9SC B 601      74.400  -2.473  19.585  0.69 32.02     0.035 C 
BRANCH  17  18
HETATM   18  C14 9SC B 601      73.962  -3.925  19.853  0.69 30.98     0.149 C 
BRANCH  18  19
HETATM   19  O1  9SC B 601      73.318  -4.452  18.692  0.69 31.49    -0.331 OA
BRANCH  19  20
HETATM   20  C15 9SC B 601      73.495  -5.843  18.505  0.69 31.02     0.096 A 
HETATM   21  C16 9SC B 601      73.790  -6.718  19.684  0.69 30.63     0.024 A 
HETATM   22  C17 9SC B 601      73.966  -8.076  19.513  0.69 30.77    -0.001 A 
HETATM   23  C18 9SC B 601      73.858  -8.695  18.112  0.69 30.32    -0.004 A 
HETATM   24  C19 9SC B 601      73.599  -7.935  17.088  0.69 30.31     0.081 A 
HETATM   25  C21 9SC B 601      74.065 -10.261  17.966  0.69 30.44     0.036 C 
HETATM   26  N3  9SC B 601      73.489  -8.477  15.738  0.69 30.27    -0.224 NA
HETATM   27  C20 9SC B 601      73.400  -6.374  17.290  0.69 30.88     0.043 A 
HETATM   28  C23 9SC B 601      73.985  -9.825  15.458  0.69 29.68     0.190 C 
HETATM   29  O2A 9SC B 601      73.893 -10.350  14.207  0.69 29.13    -0.174 OA
HETATM   30  C22 9SC B 601      74.617 -10.651  16.613  0.69 30.20     0.079 C 
ENDBRANCH  19  20
ENDBRANCH  18  19
ENDBRANCH  17  18
ENDBRANCH  16  17
ENDBRANCH   1  16
TORSDOF 7
ENDMDL
MODEL 9
REMARK VINA RESULT:      -9.9     17.091     23.140
REMARK  7 active torsions:
REMARK  status: ('A' for Active; 'I' for Inactive)
REMARK    1  A    between atoms: N1_4  and  C3_9 
REMARK    2  A    between atoms: O1_5  and  C14_21 
REMARK    3  A    between atoms: O1_5  and  C15_22 
REMARK    4  A    between atoms: N2_7  and  C11_18 
REMARK    5  A    between atoms: C11_18  and  C12_19 
REMARK    6  A    between atoms: C12_19  and  C13_20 
REMARK    7  A    between atoms: C13_20  and  C14_21 
ROOT
HETATM    1  C11 9SC B 601      73.406  -6.733  19.339  0.69 32.97     0.251 C 
ENDROOT
BRANCH   1   2
HETATM    2  N2  9SC B 601      73.691  -5.544  19.853  0.69 32.89     0.141 N 
HETATM    3  C8  9SC B 601      72.779  -5.213  20.792  0.69 32.62     0.274 C 
HETATM    4  C7  9SC B 601      73.258  -4.028  21.576  0.69 32.12     0.137 C 
HETATM    5  N1  9SC B 601      73.701  -2.997  20.664  0.69 32.72    -0.344 N 
HETATM    6  C10 9SC B 601      74.308  -3.367  19.391  0.69 32.83     0.137 C 
HETATM    7  C9  9SC B 601      73.716  -4.651  18.902  0.69 32.95     0.274 C 
BRANCH   5   8
HETATM    8  C3  9SC B 601      73.551  -1.536  21.025  0.69 33.61     0.068 A 
HETATM    9  C2  9SC B 601      74.598  -0.824  21.473  0.69 34.54     0.084 A 
HETATM   10 CL2  9SC B 601      76.202  -1.574  21.652  0.69 36.63    -0.080 Cl
HETATM   11  C1  9SC B 601      74.420   0.636  21.828  0.69 33.25     0.070 A 
HETATM   12 CL1  9SC B 601      75.812   1.582  22.421  0.69 33.56    -0.081 Cl
HETATM   13  C6  9SC B 601      73.219   1.222  21.701  0.69 33.15     0.012 A 
HETATM   14  C5  9SC B 601      72.022   0.407  21.192  0.69 33.54     0.002 A 
HETATM   15  C4  9SC B 601      72.174  -0.861  20.882  0.69 33.82     0.018 A 
ENDBRANCH   5   8
ENDBRANCH   1   2
BRANCH   1  16
HETATM   16  C12 9SC B 601      73.263  -6.577  17.768  0.69 33.14     0.038 C 
BRANCH  16  17
HETATM   17  C13 9SC B 601      73.954  -7.758  17.032  0.69 32.02     0.035 C 
BRANCH  17  18
HETATM   18  C14 9SC B 601      73.867  -9.001  17.936  0.69 30.98     0.149 C 
BRANCH  18  19
HETATM   19  O1  9SC B 601      74.801  -9.984  17.488  0.69 31.49    -0.331 OA
BRANCH  19  20
HETATM   20  C15 9SC B 601      74.415 -10.662  16.307  0.69 31.02     0.096 A 
HETATM   21  C16 9SC B 601      72.961 -10.847  16.000  0.69 30.63     0.024 A 
HETATM   22  C17 9SC B 601      72.573 -11.508  14.853  0.69 30.77    -0.001 A 
HETATM   23  C18 9SC B 601      73.633 -12.054  13.884  0.69 30.32    -0.004 A 
HETATM   24  C19 9SC B 601      74.896 -11.890  14.150  0.69 30.31     0.081 A 
HETATM   25  C21 9SC B 601      73.138 -12.803  12.576  0.69 30.44     0.036 C 
HETATM   26  N3  9SC B 601      75.938 -12.392  13.261  0.69 30.27    -0.224 NA
HETATM   27  C20 9SC B 601      75.336 -11.132  15.472  0.69 30.88     0.043 A 
HETATM   28  C23 9SC B 601      75.596 -13.369  12.226  0.69 29.68     0.190 C 
HETATM   29  O2A 9SC B 601      76.552 -13.851  11.387  0.69 29.13    -0.174 OA
HETATM   30  C22 9SC B 601      74.123 -13.845  12.096  0.69 30.20     0.079 C 
ENDBRANCH  19  20
ENDBRANCH  18  19
ENDBRANCH  17  18
ENDBRANCH  16  17
ENDBRANCH   1  16
TORSDOF 7
ENDMDL
MODEL 10
REMARK VINA RESULT:      -9.8      4.927     10.903
REMARK  7 active torsions:
REMARK  status: ('A' for Active; 'I' for Inactive)
REMARK    1  A    between atoms: N1_4  and  C3_9 
REMARK    2  A    between atoms: O1_5  and  C14_21 
REMARK    3  A    between atoms: O1_5  and  C15_22 
REMARK    4  A    between atoms: N2_7  and  C11_18 
REMARK    5  A    between atoms: C11_18  and  C12_19 
REMARK    6  A    between atoms: C12_19  and  C13_20 
REMARK    7  A    between atoms: C13_20  and  C14_21 
ROOT
HETATM    1  C11 9SC B 601      72.240  -1.458  34.456  0.69 32.97     0.251 C 
ENDROOT
BRANCH   1   2
HETATM    2  N2  9SC B 601      72.173  -1.093  35.730  0.69 32.89     0.141 N 
HETATM    3  C8  9SC B 601      71.475  -2.006  36.439  0.69 32.62     0.274 C 
HETATM    4  C7  9SC B 601      71.651  -1.757  37.907  0.69 32.12     0.137 C 
HETATM    5  N1  9SC B 601      71.422  -0.357  38.187  0.69 32.72    -0.344 N 
HETATM    6  C10 9SC B 601      71.778   0.649  37.194  0.69 32.83     0.137 C 
HETATM    7  C9  9SC B 601      71.615   0.083  35.819  0.69 32.95     0.274 C 
BRANCH   5   8
HETATM    8  C3  9SC B 601      70.826   0.075  39.509  0.69 33.61     0.068 A 
HETATM    9  C2  9SC B 601      69.497   0.188  39.663  0.69 34.54     0.084 A 
HETATM   10 CL2  9SC B 601      68.388  -0.172  38.319  0.69 36.63    -0.080 Cl
HETATM   11  C1  9SC B 601      68.928   0.624  40.996  0.69 33.25     0.070 A 
HETATM   12 CL1  9SC B 601      67.161   0.771  41.201  0.69 33.56    -0.081 Cl
HETATM   13  C6  9SC B 601      69.746   0.900  42.023  0.69 33.15     0.012 A 
HETATM   14  C5  9SC B 601      71.265   0.774  41.846  0.69 33.54     0.002 A 
HETATM   15  C4  9SC B 601      71.763   0.395  40.689  0.69 33.82     0.018 A 
ENDBRANCH   5   8
ENDBRANCH   1   2
BRANCH   1  16
HETATM   16  C12 9SC B 601      72.130  -3.037  34.382  0.69 33.14     0.038 C 
BRANCH  16  17
HETATM   17  C13 9SC B 601      73.525  -3.696  34.559  0.69 32.02     0.035 C 
BRANCH  17  18
HETATM   18  C14 9SC B 601      74.109  -3.961  33.159  0.69 30.98     0.149 C 
BRANCH  18  19
HETATM   19  O1  9SC B 601      74.991  -2.898  32.799  0.69 31.49    -0.331 OA
BRANCH  19  20
HETATM   20  C15 9SC B 601      74.860  -2.455  31.461  0.69 31.02     0.096 A 
HETATM   21  C16 9SC B 601      73.568  -1.852  31.004  0.69 30.63     0.024 A 
HETATM   22  C17 9SC B 601      73.429  -1.418  29.701  0.69 30.77    -0.001 A 
HETATM   23  C18 9SC B 601      74.599  -1.551  28.716  0.69 30.32    -0.004 A 
HETATM   24  C19 9SC B 601      75.723  -2.073  29.116  0.69 30.31     0.081 A 
HETATM   25  C21 9SC B 601      74.392  -1.035  27.230  0.69 30.44     0.036 C 
HETATM   26  N3  9SC B 601      76.862  -2.221  28.216  0.69 30.27    -0.224 NA
HETATM   27  C20 9SC B 601      75.877  -2.572  30.614  0.69 30.88     0.043 A 
HETATM   28  C23 9SC B 601      76.664  -2.090  26.772  0.69 29.68     0.190 C 
HETATM   29  O2A 9SC B 601      77.712  -2.224  25.916  0.69 29.13    -0.174 OA
HETATM   30  C22 9SC B 601      75.239  -1.789  26.230  0.69 30.20     0.079 C 
ENDBRANCH  19  20
ENDBRANCH  18  19
ENDBRANCH  17  18
ENDBRANCH  16  17
ENDBRANCH   1  16
TORSDOF 7
ENDMDL
