MODEL 1
REMARK VINA RESULT:     -11.3      0.000      0.000
REMARK  31 active torsions:
REMARK  status: ('A' for Active; 'I' for Inactive)
REMARK    1  A    between atoms: C3_5  and  O3_7 
REMARK    2  A    between atoms: C4_8  and  O4_10 
REMARK    3  A    between atoms: C6_13  and  C7_14 
REMARK    4  A    between atoms: C7_14  and  C8_15 
REMARK    5  A    between atoms: C9_16  and  C11_18 
REMARK    6  A    between atoms: C11_18  and  C12_19 
REMARK    7  A    between atoms: C12_19  and  C13_20 
REMARK    8  A    between atoms: C14_21  and  C16_23 
REMARK    9  A    between atoms: C16_23  and  C17_24 
REMARK   10  A    between atoms: C17_24  and  C18_25 
REMARK   11  A    between atoms: C19_26  and  C21_28 
REMARK   12  A    between atoms: C21_28  and  C22_29 
REMARK   13  A    between atoms: C22_29  and  C23_30 
REMARK   14  A    between atoms: C24_31  and  C26_33 
REMARK   15  A    between atoms: C26_33  and  C27_34 
REMARK   16  A    between atoms: C27_34  and  C28_35 
REMARK   17  A    between atoms: C29_36  and  C31_38 
REMARK   18  A    between atoms: C31_38  and  C32_39 
REMARK   19  A    between atoms: C32_39  and  C33_40 
REMARK   20  A    between atoms: C34_41  and  C36_43 
REMARK   21  A    between atoms: C36_43  and  C37_44 
REMARK   22  A    between atoms: C37_44  and  C38_45 
REMARK   23  A    between atoms: C39_46  and  C41_48 
REMARK   24  A    between atoms: C41_48  and  C42_49 
REMARK   25  A    between atoms: C42_49  and  C43_50 
REMARK   26  A    between atoms: C44_51  and  C46_53 
REMARK   27  A    between atoms: C46_53  and  C47_54 
REMARK   28  A    between atoms: C47_54  and  C48_55 
REMARK   29  A    between atoms: C49_56  and  C51_58 
REMARK   30  A    between atoms: C51_58  and  C52_59 
REMARK   31  A    between atoms: C52_59  and  C53_60 
ROOT
ATOM      1  C23 U10 U 311      74.222  -1.211  25.421  0.00  0.00    -0.024 C 
ATOM      2  C24 U10 U 311      75.361  -0.590  25.827  0.00  0.00    -0.087 C 
ATOM      3  C25 U10 U 311      75.493   0.509  26.902  0.00  0.00     0.043 C 
ENDROOT
BRANCH   2   4
ATOM      4  C26 U10 U 311      76.682  -0.769  25.042  0.00  0.00     0.037 C 
BRANCH   4   5
ATOM      5  C27 U10 U 311      77.104   0.325  23.964  0.00  0.00     0.031 C 
BRANCH   5   6
ATOM      6  C28 U10 U 311      75.920   0.965  23.181  0.00  0.00    -0.024 C 
ATOM      7  C29 U10 U 311      75.429   0.588  21.992  0.00  0.00    -0.087 C 
ATOM      8  C30 U10 U 311      76.002  -0.452  21.108  0.00  0.00     0.043 C 
BRANCH   7   9
ATOM      9  C31 U10 U 311      74.192   1.171  21.427  0.00  0.00     0.037 C 
BRANCH   9  10
ATOM     10  C32 U10 U 311      72.872   0.449  21.892  0.00  0.00     0.031 C 
BRANCH  10  11
ATOM     11  C33 U10 U 311      72.533  -0.725  20.977  0.00  0.00    -0.024 C 
ATOM     12  C34 U10 U 311      72.646  -2.037  21.229  0.00  0.00    -0.087 C 
ATOM     13  C35 U10 U 311      73.105  -2.706  22.505  0.00  0.00     0.043 C 
BRANCH  12  14
ATOM     14  C36 U10 U 311      72.452  -3.090  20.173  0.00  0.00     0.037 C 
BRANCH  14  15
ATOM     15  C37 U10 U 311      73.756  -3.632  19.614  0.00  0.00     0.031 C 
BRANCH  15  16
ATOM     16  C38 U10 U 311      73.654  -4.968  18.884  0.00  0.00    -0.024 C 
ATOM     17  C39 U10 U 311      73.483  -6.160  19.537  0.00  0.00    -0.087 C 
ATOM     18  C40 U10 U 311      73.350  -6.407  20.999  0.00  0.00     0.043 C 
BRANCH  17  19
ATOM     19  C41 U10 U 311      73.324  -7.446  18.782  0.00  0.00     0.037 C 
BRANCH  19  20
ATOM     20  C42 U10 U 311      73.868  -7.811  17.371  0.00  0.00     0.031 C 
BRANCH  20  21
ATOM     21  C43 U10 U 311      73.854  -9.231  16.942  0.00  0.00    -0.024 C 
ATOM     22  C44 U10 U 311      73.720  -9.692  15.683  0.00  0.00    -0.087 C 
ATOM     23  C45 U10 U 311      73.573  -8.887  14.464  0.00  0.00     0.043 C 
BRANCH  22  24
ATOM     24  C46 U10 U 311      73.730 -11.155  15.331  0.00  0.00     0.037 C 
BRANCH  24  25
ATOM     25  C47 U10 U 311      72.959 -11.672  14.086  0.00  0.00     0.031 C 
BRANCH  25  26
ATOM     26  C48 U10 U 311      73.858 -12.556  13.254  0.00  0.00    -0.024 C 
ATOM     27  C49 U10 U 311      74.547 -12.152  12.190  0.00  0.00    -0.087 C 
ATOM     28  C50 U10 U 311      74.650 -10.716  11.570  0.00  0.00     0.043 C 
BRANCH  27  29
ATOM     29  C51 U10 U 311      75.554 -12.996  11.537  0.00  0.00     0.037 C 
BRANCH  29  30
ATOM     30  C52 U10 U 311      75.121 -14.189  10.589  0.00  0.00     0.031 C 
BRANCH  30  31
ATOM     31  C53 U10 U 311      76.263 -14.602   9.686  0.00  0.00    -0.024 C 
ATOM     32  C54 U10 U 311      76.225 -14.728   8.353  0.00  0.00    -0.091 C 
ATOM     33  C56 U10 U 311      75.088 -14.528   7.407  0.00  0.00     0.042 C 
ATOM     34  C55 U10 U 311      77.392 -15.223   7.577  0.00  0.00     0.042 C 
ENDBRANCH  30  31
ENDBRANCH  29  30
ENDBRANCH  27  29
ENDBRANCH  25  26
ENDBRANCH  24  25
ENDBRANCH  22  24
ENDBRANCH  20  21
ENDBRANCH  19  20
ENDBRANCH  17  19
ENDBRANCH  15  16
ENDBRANCH  14  15
ENDBRANCH  12  14
ENDBRANCH  10  11
ENDBRANCH   9  10
ENDBRANCH   7   9
ENDBRANCH   5   6
ENDBRANCH   4   5
ENDBRANCH   2   4
BRANCH   1  35
ATOM     35  C22 U10 U 311      72.957  -1.084  26.271  0.00  0.00     0.031 C 
BRANCH  35  36
ATOM     36  C21 U10 U 311      72.794  -2.287  27.297  0.00  0.00     0.037 C 
BRANCH  36  37
ATOM     37  C19 U10 U 311      73.134  -2.095  28.800  0.00  0.00    -0.087 C 
ATOM     38  C18 U10 U 311      74.311  -2.295  29.319  0.00  0.00    -0.024 C 
ATOM     39  C20 U10 U 311      71.968  -1.434  29.501  0.00  0.00     0.043 C 
BRANCH  38  40
ATOM     40  C17 U10 U 311      74.759  -1.847  30.666  0.00  0.00     0.031 C 
BRANCH  40  41
ATOM     41  C16 U10 U 311      75.095  -3.050  31.525  0.00  0.00     0.037 C 
BRANCH  41  42
ATOM     42  C14 U10 U 311      74.198  -3.177  32.736  0.00  0.00    -0.087 C 
ATOM     43  C15 U10 U 311      74.528  -4.368  33.618  0.00  0.00     0.043 C 
ATOM     44  C13 U10 U 311      73.185  -2.251  32.992  0.00  0.00    -0.024 C 
BRANCH  44  45
ATOM     45  C12 U10 U 311      72.195  -2.293  34.126  0.00  0.00     0.031 C 
BRANCH  45  46
ATOM     46  C11 U10 U 311      71.409  -1.087  34.636  0.00  0.00     0.037 C 
BRANCH  46  47
ATOM     47  C9  U10 U 311      71.810  -0.783  36.051  0.00  0.00    -0.087 C 
ATOM     48  C10 U10 U 311      72.684  -1.799  36.764  0.00  0.00     0.043 C 
ATOM     49  C8  U10 U 311      71.385   0.389  36.656  0.00  0.00    -0.020 C 
BRANCH  49  50
ATOM     50  C7  U10 U 311      71.729   0.885  37.995  0.00  0.00     0.071 C 
BRANCH  50  51
ATOM     51  C6  U10 U 311      70.881   0.427  39.235  0.00  0.00     0.008 A 
ATOM     52  C5  U10 U 311      69.565   1.003  39.379  0.00  0.00     0.215 A 
ATOM     53  C4  U10 U 311      68.744   0.563  40.388  0.00  0.00     0.156 A 
ATOM     54  O5  U10 U 311      69.309   2.004  38.716  0.00  0.00    -0.285 OA
ATOM     55  C3  U10 U 311      69.205  -0.321  41.289  0.00  0.00     0.156 A 
ATOM     56  C2  U10 U 311      70.441  -0.826  41.266  0.00  0.00     0.214 A 
ATOM     57  O2  U10 U 311      70.861  -1.551  42.194  0.00  0.00    -0.285 OA
ATOM     58  C1  U10 U 311      71.315  -0.560  40.253  0.00  0.00     0.002 A 
ATOM     59  C1M U10 U 311      72.500  -1.324  40.028  0.00  0.00     0.053 C 
BRANCH  53  60
ATOM     60  O4  U10 U 311      67.558   1.146  40.525  0.00  0.00    -0.350 OA
ATOM     61  C4M U10 U 311      66.546   0.522  39.733  0.00  0.00     0.210 C 
ENDBRANCH  53  60
BRANCH  55  62
ATOM     62  O3  U10 U 311      68.418  -0.668  42.325  0.00  0.00    -0.350 OA
ATOM     63  C3M U10 U 311      67.502  -1.702  42.138  0.00  0.00     0.210 C 
ENDBRANCH  55  62
ENDBRANCH  50  51
ENDBRANCH  49  50
ENDBRANCH  46  47
ENDBRANCH  45  46
ENDBRANCH  44  45
ENDBRANCH  41  42
ENDBRANCH  40  41
ENDBRANCH  38  40
ENDBRANCH  36  37
ENDBRANCH  35  36
ENDBRANCH   1  35
TORSDOF 31
ENDMDL
MODEL 2
REMARK VINA RESULT:     -11.2      2.040      4.717
REMARK  31 active torsions:
REMARK  status: ('A' for Active; 'I' for Inactive)
REMARK    1  A    between atoms: C3_5  and  O3_7 
REMARK    2  A    between atoms: C4_8  and  O4_10 
REMARK    3  A    between atoms: C6_13  and  C7_14 
REMARK    4  A    between atoms: C7_14  and  C8_15 
REMARK    5  A    between atoms: C9_16  and  C11_18 
REMARK    6  A    between atoms: C11_18  and  C12_19 
REMARK    7  A    between atoms: C12_19  and  C13_20 
REMARK    8  A    between atoms: C14_21  and  C16_23 
REMARK    9  A    between atoms: C16_23  and  C17_24 
REMARK   10  A    between atoms: C17_24  and  C18_25 
REMARK   11  A    between atoms: C19_26  and  C21_28 
REMARK   12  A    between atoms: C21_28  and  C22_29 
REMARK   13  A    between atoms: C22_29  and  C23_30 
REMARK   14  A    between atoms: C24_31  and  C26_33 
REMARK   15  A    between atoms: C26_33  and  C27_34 
REMARK   16  A    between atoms: C27_34  and  C28_35 
REMARK   17  A    between atoms: C29_36  and  C31_38 
REMARK   18  A    between atoms: C31_38  and  C32_39 
REMARK   19  A    between atoms: C32_39  and  C33_40 
REMARK   20  A    between atoms: C34_41  and  C36_43 
REMARK   21  A    between atoms: C36_43  and  C37_44 
REMARK   22  A    between atoms: C37_44  and  C38_45 
REMARK   23  A    between atoms: C39_46  and  C41_48 
REMARK   24  A    between atoms: C41_48  and  C42_49 
REMARK   25  A    between atoms: C42_49  and  C43_50 
REMARK   26  A    between atoms: C44_51  and  C46_53 
REMARK   27  A    between atoms: C46_53  and  C47_54 
REMARK   28  A    between atoms: C47_54  and  C48_55 
REMARK   29  A    between atoms: C49_56  and  C51_58 
REMARK   30  A    between atoms: C51_58  and  C52_59 
REMARK   31  A    between atoms: C52_59  and  C53_60 
ROOT
ATOM      1  C23 U10 U 311      74.529  -2.382  30.928  0.00  0.00    -0.024 C 
ATOM      2  C24 U10 U 311      75.139  -2.182  29.729  0.00  0.00    -0.087 C 
ATOM      3  C25 U10 U 311      76.655  -2.125  29.450  0.00  0.00     0.043 C 
ENDROOT
BRANCH   2   4
ATOM      4  C26 U10 U 311      74.323  -1.733  28.493  0.00  0.00     0.037 C 
BRANCH   4   5
ATOM      5  C27 U10 U 311      74.647  -0.332  27.810  0.00  0.00     0.031 C 
BRANCH   5   6
ATOM      6  C28 U10 U 311      75.521  -0.415  26.524  0.00  0.00    -0.024 C 
ATOM      7  C29 U10 U 311      75.103  -0.603  25.264  0.00  0.00    -0.087 C 
ATOM      8  C30 U10 U 311      73.714  -0.900  24.847  0.00  0.00     0.043 C 
BRANCH   7   9
ATOM      9  C31 U10 U 311      76.016  -0.495  24.105  0.00  0.00     0.037 C 
BRANCH   9  10
ATOM     10  C32 U10 U 311      75.924   0.878  23.340  0.00  0.00     0.031 C 
BRANCH  10  11
ATOM     11  C33 U10 U 311      75.802   0.664  21.834  0.00  0.00    -0.024 C 
ATOM     12  C34 U10 U 311      74.708   0.764  21.064  0.00  0.00    -0.087 C 
ATOM     13  C35 U10 U 311      73.308   1.153  21.479  0.00  0.00     0.043 C 
BRANCH  12  14
ATOM     14  C36 U10 U 311      74.688   0.346  19.620  0.00  0.00     0.037 C 
BRANCH  14  15
ATOM     15  C37 U10 U 311      75.461  -0.933  19.351  0.00  0.00     0.031 C 
BRANCH  15  16
ATOM     16  C38 U10 U 311      74.620  -2.130  18.917  0.00  0.00    -0.024 C 
ATOM     17  C39 U10 U 311      73.917  -2.904  19.803  0.00  0.00    -0.087 C 
ATOM     18  C40 U10 U 311      73.804  -2.756  21.279  0.00  0.00     0.043 C 
BRANCH  17  19
ATOM     19  C41 U10 U 311      73.051  -4.035  19.333  0.00  0.00     0.037 C 
BRANCH  19  20
ATOM     20  C42 U10 U 311      73.391  -5.552  19.274  0.00  0.00     0.031 C 
BRANCH  20  21
ATOM     21  C43 U10 U 311      73.388  -6.237  17.958  0.00  0.00    -0.024 C 
ATOM     22  C44 U10 U 311      73.614  -7.546  17.729  0.00  0.00    -0.087 C 
ATOM     23  C45 U10 U 311      73.897  -8.577  18.735  0.00  0.00     0.043 C 
BRANCH  22  24
ATOM     24  C46 U10 U 311      73.577  -8.166  16.358  0.00  0.00     0.037 C 
BRANCH  24  25
ATOM     25  C47 U10 U 311      74.394  -9.451  16.052  0.00  0.00     0.031 C 
BRANCH  25  26
ATOM     26  C48 U10 U 311      73.546 -10.424  15.267  0.00  0.00    -0.024 C 
ATOM     27  C49 U10 U 311      73.237 -10.295  13.979  0.00  0.00    -0.087 C 
ATOM     28  C50 U10 U 311      73.684  -9.185  12.965  0.00  0.00     0.043 C 
BRANCH  27  29
ATOM     29  C51 U10 U 311      72.579 -11.361  13.216  0.00  0.00     0.037 C 
BRANCH  29  30
ATOM     30  C52 U10 U 311      72.938 -12.882  13.471  0.00  0.00     0.031 C 
BRANCH  30  31
ATOM     31  C53 U10 U 311      73.780 -13.435  12.342  0.00  0.00    -0.024 C 
ATOM     32  C54 U10 U 311      75.090 -13.233  12.146  0.00  0.00    -0.091 C 
ATOM     33  C56 U10 U 311      76.059 -12.420  12.936  0.00  0.00     0.042 C 
ATOM     34  C55 U10 U 311      75.796 -13.763  10.950  0.00  0.00     0.042 C 
ENDBRANCH  30  31
ENDBRANCH  29  30
ENDBRANCH  27  29
ENDBRANCH  25  26
ENDBRANCH  24  25
ENDBRANCH  22  24
ENDBRANCH  20  21
ENDBRANCH  19  20
ENDBRANCH  17  19
ENDBRANCH  15  16
ENDBRANCH  14  15
ENDBRANCH  12  14
ENDBRANCH  10  11
ENDBRANCH   9  10
ENDBRANCH   7   9
ENDBRANCH   5   6
ENDBRANCH   4   5
ENDBRANCH   2   4
BRANCH   1  35
ATOM     35  C22 U10 U 311      75.350  -2.910  32.104  0.00  0.00     0.031 C 
BRANCH  35  36
ATOM     36  C21 U10 U 311      74.442  -3.594  33.217  0.00  0.00     0.037 C 
BRANCH  36  37
ATOM     37  C19 U10 U 311      73.315  -2.790  33.920  0.00  0.00    -0.087 C 
ATOM     38  C18 U10 U 311      73.019  -1.551  33.651  0.00  0.00    -0.024 C 
ATOM     39  C20 U10 U 311      72.490  -3.722  34.779  0.00  0.00     0.043 C 
BRANCH  38  40
ATOM     40  C17 U10 U 311      71.780  -0.839  34.070  0.00  0.00     0.031 C 
BRANCH  40  41
ATOM     41  C16 U10 U 311      72.120   0.227  35.094  0.00  0.00     0.037 C 
BRANCH  41  42
ATOM     42  C14 U10 U 311      71.527  -0.057  36.456  0.00  0.00    -0.087 C 
ATOM     43  C15 U10 U 311      71.849   1.003  37.495  0.00  0.00     0.043 C 
ATOM     44  C13 U10 U 311      70.747  -1.191  36.689  0.00  0.00    -0.024 C 
BRANCH  44  45
ATOM     45  C12 U10 U 311      70.147  -1.614  38.005  0.00  0.00     0.031 C 
BRANCH  45  46
ATOM     46  C11 U10 U 311      70.955  -2.049  39.225  0.00  0.00     0.037 C 
BRANCH  46  47
ATOM     47  C9  U10 U 311      70.823  -1.020  40.312  0.00  0.00    -0.087 C 
ATOM     48  C10 U10 U 311      71.959  -0.911  41.313  0.00  0.00     0.043 C 
ATOM     49  C8  U10 U 311      69.698  -0.215  40.372  0.00  0.00    -0.020 C 
BRANCH  49  50
ATOM     50  C7  U10 U 311      69.426   0.882  41.312  0.00  0.00     0.071 C 
BRANCH  50  51
ATOM     51  C6  U10 U 311      69.334   2.356  40.779  0.00  0.00     0.008 A 
ATOM     52  C5  U10 U 311      70.554   3.128  40.770  0.00  0.00     0.215 A 
ATOM     53  C4  U10 U 311      70.551   4.387  40.222  0.00  0.00     0.156 A 
ATOM     54  O5  U10 U 311      71.497   2.704  41.432  0.00  0.00    -0.285 OA
ATOM     55  C3  U10 U 311      69.397   4.928  39.794  0.00  0.00     0.156 A 
ATOM     56  C2  U10 U 311      68.219   4.303  39.855  0.00  0.00     0.214 A 
ATOM     57  O2  U10 U 311      67.157   4.892  39.557  0.00  0.00    -0.285 OA
ATOM     58  C1  U10 U 311      68.104   3.008  40.270  0.00  0.00     0.002 A 
ATOM     59  C1M U10 U 311      66.936   2.220  40.042  0.00  0.00     0.053 C 
BRANCH  53  60
ATOM     60  O4  U10 U 311      71.676   5.091  40.272  0.00  0.00    -0.350 OA
ATOM     61  C4M U10 U 311      71.555   6.261  41.084  0.00  0.00     0.210 C 
ENDBRANCH  53  60
BRANCH  55  62
ATOM     62  O3  U10 U 311      69.398   6.198  39.348  0.00  0.00    -0.350 OA
ATOM     63  C3M U10 U 311      69.231   6.416  37.982  0.00  0.00     0.210 C 
ENDBRANCH  55  62
ENDBRANCH  50  51
ENDBRANCH  49  50
ENDBRANCH  46  47
ENDBRANCH  45  46
ENDBRANCH  44  45
ENDBRANCH  41  42
ENDBRANCH  40  41
ENDBRANCH  38  40
ENDBRANCH  36  37
ENDBRANCH  35  36
ENDBRANCH   1  35
TORSDOF 31
ENDMDL
MODEL 3
REMARK VINA RESULT:     -11.2      1.347      3.419
REMARK  31 active torsions:
REMARK  status: ('A' for Active; 'I' for Inactive)
REMARK    1  A    between atoms: C3_5  and  O3_7 
REMARK    2  A    between atoms: C4_8  and  O4_10 
REMARK    3  A    between atoms: C6_13  and  C7_14 
REMARK    4  A    between atoms: C7_14  and  C8_15 
REMARK    5  A    between atoms: C9_16  and  C11_18 
REMARK    6  A    between atoms: C11_18  and  C12_19 
REMARK    7  A    between atoms: C12_19  and  C13_20 
REMARK    8  A    between atoms: C14_21  and  C16_23 
REMARK    9  A    between atoms: C16_23  and  C17_24 
REMARK   10  A    between atoms: C17_24  and  C18_25 
REMARK   11  A    between atoms: C19_26  and  C21_28 
REMARK   12  A    between atoms: C21_28  and  C22_29 
REMARK   13  A    between atoms: C22_29  and  C23_30 
REMARK   14  A    between atoms: C24_31  and  C26_33 
REMARK   15  A    between atoms: C26_33  and  C27_34 
REMARK   16  A    between atoms: C27_34  and  C28_35 
REMARK   17  A    between atoms: C29_36  and  C31_38 
REMARK   18  A    between atoms: C31_38  and  C32_39 
REMARK   19  A    between atoms: C32_39  and  C33_40 
REMARK   20  A    between atoms: C34_41  and  C36_43 
REMARK   21  A    between atoms: C36_43  and  C37_44 
REMARK   22  A    between atoms: C37_44  and  C38_45 
REMARK   23  A    between atoms: C39_46  and  C41_48 
REMARK   24  A    between atoms: C41_48  and  C42_49 
REMARK   25  A    between atoms: C42_49  and  C43_50 
REMARK   26  A    between atoms: C44_51  and  C46_53 
REMARK   27  A    between atoms: C46_53  and  C47_54 
REMARK   28  A    between atoms: C47_54  and  C48_55 
REMARK   29  A    between atoms: C49_56  and  C51_58 
REMARK   30  A    between atoms: C51_58  and  C52_59 
REMARK   31  A    between atoms: C52_59  and  C53_60 
ROOT
ATOM      1  C23 U10 U 311      75.493  -0.315  25.386  0.00  0.00    -0.024 C 
ATOM      2  C24 U10 U 311      76.556  -0.224  24.542  0.00  0.00    -0.087 C 
ATOM      3  C25 U10 U 311      77.857  -1.051  24.588  0.00  0.00     0.043 C 
ENDROOT
BRANCH   2   4
ATOM      4  C26 U10 U 311      76.668   0.946  23.536  0.00  0.00     0.037 C 
BRANCH   4   5
ATOM      5  C27 U10 U 311      75.617   1.055  22.345  0.00  0.00     0.031 C 
BRANCH   5   6
ATOM      6  C28 U10 U 311      75.563  -0.183  21.403  0.00  0.00    -0.024 C 
ATOM      7  C29 U10 U 311      74.662  -1.176  21.410  0.00  0.00    -0.087 C 
ATOM      8  C30 U10 U 311      73.590  -1.365  22.414  0.00  0.00     0.043 C 
BRANCH   7   9
ATOM      9  C31 U10 U 311      74.618  -2.211  20.355  0.00  0.00     0.037 C 
BRANCH   9  10
ATOM     10  C32 U10 U 311      73.595  -3.374  20.638  0.00  0.00     0.031 C 
BRANCH  10  11
ATOM     11  C33 U10 U 311      73.377  -4.233  19.396  0.00  0.00    -0.024 C 
ATOM     12  C34 U10 U 311      73.357  -5.571  19.302  0.00  0.00    -0.087 C 
ATOM     13  C35 U10 U 311      73.507  -6.587  20.410  0.00  0.00     0.043 C 
BRANCH  12  14
ATOM     14  C36 U10 U 311      73.316  -6.294  17.984  0.00  0.00     0.037 C 
BRANCH  14  15
ATOM     15  C37 U10 U 311      73.739  -7.750  18.082  0.00  0.00     0.031 C 
BRANCH  15  16
ATOM     16  C38 U10 U 311      73.989  -8.453  16.751  0.00  0.00    -0.024 C 
ATOM     17  C39 U10 U 311      73.830  -9.803  16.582  0.00  0.00    -0.087 C 
ATOM     18  C40 U10 U 311      73.391 -10.818  17.578  0.00  0.00     0.043 C 
BRANCH  17  19
ATOM     19  C41 U10 U 311      74.024 -10.449  15.242  0.00  0.00     0.037 C 
BRANCH  19  20
ATOM     20  C42 U10 U 311      75.038 -11.559  14.843  0.00  0.00     0.031 C 
BRANCH  20  21
ATOM     21  C43 U10 U 311      75.327 -11.784  13.406  0.00  0.00    -0.024 C 
ATOM     22  C44 U10 U 311      74.798 -12.740  12.616  0.00  0.00    -0.087 C 
ATOM     23  C45 U10 U 311      73.811 -13.754  13.007  0.00  0.00     0.043 C 
BRANCH  22  24
ATOM     24  C46 U10 U 311      75.136 -12.891  11.158  0.00  0.00     0.037 C 
BRANCH  24  25
ATOM     25  C47 U10 U 311      75.142 -14.293  10.491  0.00  0.00     0.031 C 
BRANCH  25  26
ATOM     26  C48 U10 U 311      76.181 -14.337   9.394  0.00  0.00    -0.024 C 
ATOM     27  C49 U10 U 311      75.937 -14.676   8.131  0.00  0.00    -0.087 C 
ATOM     28  C50 U10 U 311      74.573 -15.054   7.457  0.00  0.00     0.043 C 
BRANCH  27  29
ATOM     29  C51 U10 U 311      76.933 -14.514   7.066  0.00  0.00     0.037 C 
BRANCH  29  30
ATOM     30  C52 U10 U 311      77.108 -15.619   5.945  0.00  0.00     0.031 C 
BRANCH  30  31
ATOM     31  C53 U10 U 311      78.394 -16.391   6.144  0.00  0.00    -0.024 C 
ATOM     32  C54 U10 U 311      78.673 -17.239   7.143  0.00  0.00    -0.091 C 
ATOM     33  C56 U10 U 311      77.843 -17.638   8.317  0.00  0.00     0.042 C 
ATOM     34  C55 U10 U 311      80.007 -17.880   7.280  0.00  0.00     0.042 C 
ENDBRANCH  30  31
ENDBRANCH  29  30
ENDBRANCH  27  29
ENDBRANCH  25  26
ENDBRANCH  24  25
ENDBRANCH  22  24
ENDBRANCH  20  21
ENDBRANCH  19  20
ENDBRANCH  17  19
ENDBRANCH  15  16
ENDBRANCH  14  15
ENDBRANCH  12  14
ENDBRANCH  10  11
ENDBRANCH   9  10
ENDBRANCH   7   9
ENDBRANCH   5   6
ENDBRANCH   4   5
ENDBRANCH   2   4
BRANCH   1  35
ATOM     35  C22 U10 U 311      75.370  -1.531  26.304  0.00  0.00     0.031 C 
BRANCH  35  36
ATOM     36  C21 U10 U 311      74.681  -1.174  27.693  0.00  0.00     0.037 C 
BRANCH  36  37
ATOM     37  C19 U10 U 311      75.307  -1.654  29.031  0.00  0.00    -0.087 C 
ATOM     38  C18 U10 U 311      74.644  -1.796  30.142  0.00  0.00    -0.024 C 
ATOM     39  C20 U10 U 311      76.719  -2.136  28.784  0.00  0.00     0.043 C 
BRANCH  38  40
ATOM     40  C17 U10 U 311      75.115  -2.523  31.353  0.00  0.00     0.031 C 
BRANCH  40  41
ATOM     41  C16 U10 U 311      73.996  -3.383  31.907  0.00  0.00     0.037 C 
BRANCH  41  42
ATOM     42  C14 U10 U 311      73.477  -2.885  33.238  0.00  0.00    -0.087 C 
ATOM     43  C15 U10 U 311      72.942  -1.465  33.193  0.00  0.00     0.043 C 
ATOM     44  C13 U10 U 311      73.490  -3.697  34.373  0.00  0.00    -0.024 C 
BRANCH  44  45
ATOM     45  C12 U10 U 311      73.054  -3.307  35.762  0.00  0.00     0.031 C 
BRANCH  45  46
ATOM     46  C11 U10 U 311      71.626  -2.930  36.148  0.00  0.00     0.037 C 
BRANCH  46  47
ATOM     47  C9  U10 U 311      71.635  -1.654  36.941  0.00  0.00    -0.087 C 
ATOM     48  C10 U10 U 311      71.332  -0.366  36.196  0.00  0.00     0.043 C 
ATOM     49  C8  U10 U 311      71.910  -1.683  38.298  0.00  0.00    -0.020 C 
BRANCH  49  50
ATOM     50  C7  U10 U 311      71.896  -0.557  39.242  0.00  0.00     0.071 C 
BRANCH  50  51
ATOM     51  C6  U10 U 311      70.550  -0.141  39.936  0.00  0.00     0.008 A 
ATOM     52  C5  U10 U 311      69.864   1.010  39.399  0.00  0.00     0.215 A 
ATOM     53  C4  U10 U 311      68.634   1.357  39.904  0.00  0.00     0.156 A 
ATOM     54  O5  U10 U 311      70.497   1.750  38.652  0.00  0.00    -0.285 OA
ATOM     55  C3  U10 U 311      68.128   0.688  40.954  0.00  0.00     0.156 A 
ATOM     56  C2  U10 U 311      68.751  -0.330  41.553  0.00  0.00     0.214 A 
ATOM     57  O2  U10 U 311      68.296  -0.841  42.600  0.00  0.00    -0.285 OA
ATOM     58  C1  U10 U 311      69.922  -0.846  41.079  0.00  0.00     0.002 A 
ATOM     59  C1M U10 U 311      70.435  -2.113  41.489  0.00  0.00     0.053 C 
BRANCH  53  60
ATOM     60  O4  U10 U 311      68.050   2.449  39.424  0.00  0.00    -0.350 OA
ATOM     61  C4M U10 U 311      68.564   3.647  40.009  0.00  0.00     0.210 C 
ENDBRANCH  53  60
BRANCH  55  62
ATOM     62  O3  U10 U 311      66.967   1.103  41.493  0.00  0.00    -0.350 OA
ATOM     63  C3M U10 U 311      65.790   0.481  41.079  0.00  0.00     0.210 C 
ENDBRANCH  55  62
ENDBRANCH  50  51
ENDBRANCH  49  50
ENDBRANCH  46  47
ENDBRANCH  45  46
ENDBRANCH  44  45
ENDBRANCH  41  42
ENDBRANCH  40  41
ENDBRANCH  38  40
ENDBRANCH  36  37
ENDBRANCH  35  36
ENDBRANCH   1  35
TORSDOF 31
ENDMDL
MODEL 4
REMARK VINA RESULT:     -11.1      1.921      4.593
REMARK  31 active torsions:
REMARK  status: ('A' for Active; 'I' for Inactive)
REMARK    1  A    between atoms: C3_5  and  O3_7 
REMARK    2  A    between atoms: C4_8  and  O4_10 
REMARK    3  A    between atoms: C6_13  and  C7_14 
REMARK    4  A    between atoms: C7_14  and  C8_15 
REMARK    5  A    between atoms: C9_16  and  C11_18 
REMARK    6  A    between atoms: C11_18  and  C12_19 
REMARK    7  A    between atoms: C12_19  and  C13_20 
REMARK    8  A    between atoms: C14_21  and  C16_23 
REMARK    9  A    between atoms: C16_23  and  C17_24 
REMARK   10  A    between atoms: C17_24  and  C18_25 
REMARK   11  A    between atoms: C19_26  and  C21_28 
REMARK   12  A    between atoms: C21_28  and  C22_29 
REMARK   13  A    between atoms: C22_29  and  C23_30 
REMARK   14  A    between atoms: C24_31  and  C26_33 
REMARK   15  A    between atoms: C26_33  and  C27_34 
REMARK   16  A    between atoms: C27_34  and  C28_35 
REMARK   17  A    between atoms: C29_36  and  C31_38 
REMARK   18  A    between atoms: C31_38  and  C32_39 
REMARK   19  A    between atoms: C32_39  and  C33_40 
REMARK   20  A    between atoms: C34_41  and  C36_43 
REMARK   21  A    between atoms: C36_43  and  C37_44 
REMARK   22  A    between atoms: C37_44  and  C38_45 
REMARK   23  A    between atoms: C39_46  and  C41_48 
REMARK   24  A    between atoms: C41_48  and  C42_49 
REMARK   25  A    between atoms: C42_49  and  C43_50 
REMARK   26  A    between atoms: C44_51  and  C46_53 
REMARK   27  A    between atoms: C46_53  and  C47_54 
REMARK   28  A    between atoms: C47_54  and  C48_55 
REMARK   29  A    between atoms: C49_56  and  C51_58 
REMARK   30  A    between atoms: C51_58  and  C52_59 
REMARK   31  A    between atoms: C52_59  and  C53_60 
ROOT
ATOM      1  C23 U10 U 311      74.741  -2.384  31.051  0.00  0.00    -0.024 C 
ATOM      2  C24 U10 U 311      75.233  -1.958  29.857  0.00  0.00    -0.087 C 
ATOM      3  C25 U10 U 311      76.707  -1.961  29.400  0.00  0.00     0.043 C 
ENDROOT
BRANCH   2   4
ATOM      4  C26 U10 U 311      74.341  -1.165  28.872  0.00  0.00     0.037 C 
BRANCH   4   5
ATOM      5  C27 U10 U 311      74.343  -1.557  27.329  0.00  0.00     0.031 C 
BRANCH   5   6
ATOM      6  C28 U10 U 311      75.002  -0.507  26.386  0.00  0.00    -0.024 C 
ATOM      7  C29 U10 U 311      76.164  -0.616  25.728  0.00  0.00    -0.087 C 
ATOM      8  C30 U10 U 311      77.136  -1.725  25.864  0.00  0.00     0.043 C 
BRANCH   7   9
ATOM      9  C31 U10 U 311      76.604   0.382  24.729  0.00  0.00     0.037 C 
BRANCH   9  10
ATOM     10  C32 U10 U 311      76.525  -0.123  23.239  0.00  0.00     0.031 C 
BRANCH  10  11
ATOM     11  C33 U10 U 311      75.454   0.631  22.456  0.00  0.00    -0.024 C 
ATOM     12  C34 U10 U 311      74.121   0.534  22.563  0.00  0.00    -0.087 C 
ATOM     13  C35 U10 U 311      73.322  -0.322  23.518  0.00  0.00     0.043 C 
BRANCH  12  14
ATOM     14  C36 U10 U 311      73.175   1.199  21.602  0.00  0.00     0.037 C 
BRANCH  14  15
ATOM     15  C37 U10 U 311      73.015   0.444  20.293  0.00  0.00     0.031 C 
BRANCH  15  16
ATOM     16  C38 U10 U 311      72.400  -0.948  20.409  0.00  0.00    -0.024 C 
ATOM     17  C39 U10 U 311      73.137  -2.097  20.297  0.00  0.00    -0.087 C 
ATOM     18  C40 U10 U 311      74.601  -2.244  20.074  0.00  0.00     0.043 C 
BRANCH  17  19
ATOM     19  C41 U10 U 311      72.508  -3.447  20.479  0.00  0.00     0.037 C 
BRANCH  19  20
ATOM     20  C42 U10 U 311      73.144  -4.848  20.249  0.00  0.00     0.031 C 
BRANCH  20  21
ATOM     21  C43 U10 U 311      73.120  -5.431  18.885  0.00  0.00    -0.024 C 
ATOM     22  C44 U10 U 311      73.575  -6.646  18.519  0.00  0.00    -0.087 C 
ATOM     23  C45 U10 U 311      74.179  -7.658  19.394  0.00  0.00     0.043 C 
BRANCH  22  24
ATOM     24  C46 U10 U 311      73.499  -7.169  17.110  0.00  0.00     0.037 C 
BRANCH  24  25
ATOM     25  C47 U10 U 311      74.247  -8.470  16.710  0.00  0.00     0.031 C 
BRANCH  25  26
ATOM     26  C48 U10 U 311      73.551  -9.126  15.541  0.00  0.00    -0.024 C 
ATOM     27  C49 U10 U 311      73.746 -10.382  15.149  0.00  0.00    -0.087 C 
ATOM     28  C50 U10 U 311      74.664 -11.482  15.784  0.00  0.00     0.043 C 
BRANCH  27  29
ATOM     29  C51 U10 U 311      72.906 -11.030  14.136  0.00  0.00     0.037 C 
BRANCH  29  30
ATOM     30  C52 U10 U 311      73.184 -10.813  12.592  0.00  0.00     0.031 C 
BRANCH  30  31
ATOM     31  C53 U10 U 311      74.480 -11.477  12.178  0.00  0.00    -0.024 C 
ATOM     32  C54 U10 U 311      74.753 -12.787  12.206  0.00  0.00    -0.091 C 
ATOM     33  C56 U10 U 311      73.907 -13.930  12.656  0.00  0.00     0.042 C 
ATOM     34  C55 U10 U 311      76.096 -13.317  11.851  0.00  0.00     0.042 C 
ENDBRANCH  30  31
ENDBRANCH  29  30
ENDBRANCH  27  29
ENDBRANCH  25  26
ENDBRANCH  24  25
ENDBRANCH  22  24
ENDBRANCH  20  21
ENDBRANCH  19  20
ENDBRANCH  17  19
ENDBRANCH  15  16
ENDBRANCH  14  15
ENDBRANCH  12  14
ENDBRANCH  10  11
ENDBRANCH   9  10
ENDBRANCH   7   9
ENDBRANCH   5   6
ENDBRANCH   4   5
ENDBRANCH   2   4
BRANCH   1  35
ATOM     35  C22 U10 U 311      75.622  -3.241  31.960  0.00  0.00     0.031 C 
BRANCH  35  36
ATOM     36  C21 U10 U 311      74.801  -3.903  33.150  0.00  0.00     0.037 C 
BRANCH  36  37
ATOM     37  C19 U10 U 311      73.556  -3.188  33.743  0.00  0.00    -0.087 C 
ATOM     38  C18 U10 U 311      73.105  -2.038  33.333  0.00  0.00    -0.024 C 
ATOM     39  C20 U10 U 311      72.838  -4.126  34.688  0.00  0.00     0.043 C 
BRANCH  38  40
ATOM     40  C17 U10 U 311      71.770  -1.460  33.652  0.00  0.00     0.031 C 
BRANCH  40  41
ATOM     41  C16 U10 U 311      71.929  -0.290  34.604  0.00  0.00     0.037 C 
BRANCH  41  42
ATOM     42  C14 U10 U 311      71.433  -0.597  36.000  0.00  0.00    -0.087 C 
ATOM     43  C15 U10 U 311      71.876   0.415  37.041  0.00  0.00     0.043 C 
ATOM     44  C13 U10 U 311      70.629  -1.708  36.260  0.00  0.00    -0.024 C 
BRANCH  44  45
ATOM     45  C12 U10 U 311      70.117  -2.152  37.605  0.00  0.00     0.031 C 
BRANCH  45  46
ATOM     46  C11 U10 U 311      71.005  -2.586  38.770  0.00  0.00     0.037 C 
BRANCH  46  47
ATOM     47  C9  U10 U 311      70.887  -1.596  39.893  0.00  0.00    -0.087 C 
ATOM     48  C10 U10 U 311      72.041  -1.512  40.875  0.00  0.00     0.043 C 
ATOM     49  C8  U10 U 311      69.757  -0.802  40.001  0.00  0.00    -0.020 C 
BRANCH  49  50
ATOM     50  C7  U10 U 311      69.495   0.260  40.982  0.00  0.00     0.071 C 
BRANCH  50  51
ATOM     51  C6  U10 U 311      69.967   1.728  40.682  0.00  0.00     0.008 A 
ATOM     52  C5  U10 U 311      69.099   2.542  39.865  0.00  0.00     0.215 A 
ATOM     53  C4  U10 U 311      69.415   3.863  39.656  0.00  0.00     0.156 A 
ATOM     54  O5  U10 U 311      68.220   1.970  39.228  0.00  0.00    -0.285 OA
ATOM     55  C3  U10 U 311      70.574   4.356  40.125  0.00  0.00     0.156 A 
ATOM     56  C2  U10 U 311      71.462   3.634  40.812  0.00  0.00     0.214 A 
ATOM     57  O2  U10 U 311      72.579   4.106  41.121  0.00  0.00    -0.285 OA
ATOM     58  C1  U10 U 311      71.218   2.345  41.186  0.00  0.00     0.002 A 
ATOM     59  C1M U10 U 311      71.985   1.665  42.178  0.00  0.00     0.053 C 
BRANCH  53  60
ATOM     60  O4  U10 U 311      68.623   4.573  38.860  0.00  0.00    -0.350 OA
ATOM     61  C4M U10 U 311      67.681   5.362  39.588  0.00  0.00     0.210 C 
ENDBRANCH  53  60
BRANCH  55  62
ATOM     62  O3  U10 U 311      70.909   5.626  39.828  0.00  0.00    -0.350 OA
ATOM     63  C3M U10 U 311      71.169   6.501  40.882  0.00  0.00     0.210 C 
ENDBRANCH  55  62
ENDBRANCH  50  51
ENDBRANCH  49  50
ENDBRANCH  46  47
ENDBRANCH  45  46
ENDBRANCH  44  45
ENDBRANCH  41  42
ENDBRANCH  40  41
ENDBRANCH  38  40
ENDBRANCH  36  37
ENDBRANCH  35  36
ENDBRANCH   1  35
TORSDOF 31
ENDMDL
MODEL 5
REMARK VINA RESULT:     -11.1      2.119      5.396
REMARK  31 active torsions:
REMARK  status: ('A' for Active; 'I' for Inactive)
REMARK    1  A    between atoms: C3_5  and  O3_7 
REMARK    2  A    between atoms: C4_8  and  O4_10 
REMARK    3  A    between atoms: C6_13  and  C7_14 
REMARK    4  A    between atoms: C7_14  and  C8_15 
REMARK    5  A    between atoms: C9_16  and  C11_18 
REMARK    6  A    between atoms: C11_18  and  C12_19 
REMARK    7  A    between atoms: C12_19  and  C13_20 
REMARK    8  A    between atoms: C14_21  and  C16_23 
REMARK    9  A    between atoms: C16_23  and  C17_24 
REMARK   10  A    between atoms: C17_24  and  C18_25 
REMARK   11  A    between atoms: C19_26  and  C21_28 
REMARK   12  A    between atoms: C21_28  and  C22_29 
REMARK   13  A    between atoms: C22_29  and  C23_30 
REMARK   14  A    between atoms: C24_31  and  C26_33 
REMARK   15  A    between atoms: C26_33  and  C27_34 
REMARK   16  A    between atoms: C27_34  and  C28_35 
REMARK   17  A    between atoms: C29_36  and  C31_38 
REMARK   18  A    between atoms: C31_38  and  C32_39 
REMARK   19  A    between atoms: C32_39  and  C33_40 
REMARK   20  A    between atoms: C34_41  and  C36_43 
REMARK   21  A    between atoms: C36_43  and  C37_44 
REMARK   22  A    between atoms: C37_44  and  C38_45 
REMARK   23  A    between atoms: C39_46  and  C41_48 
REMARK   24  A    between atoms: C41_48  and  C42_49 
REMARK   25  A    between atoms: C42_49  and  C43_50 
REMARK   26  A    between atoms: C44_51  and  C46_53 
REMARK   27  A    between atoms: C46_53  and  C47_54 
REMARK   28  A    between atoms: C47_54  and  C48_55 
REMARK   29  A    between atoms: C49_56  and  C51_58 
REMARK   30  A    between atoms: C51_58  and  C52_59 
REMARK   31  A    between atoms: C52_59  and  C53_60 
ROOT
ATOM      1  C23 U10 U 311      73.265  -1.714  32.002  0.00  0.00    -0.024 C 
ATOM      2  C24 U10 U 311      74.226  -2.441  31.371  0.00  0.00    -0.087 C 
ATOM      3  C25 U10 U 311      75.478  -3.082  32.003  0.00  0.00     0.043 C 
ENDROOT
BRANCH   2   4
ATOM      4  C26 U10 U 311      74.282  -2.501  29.826  0.00  0.00     0.037 C 
BRANCH   4   5
ATOM      5  C27 U10 U 311      74.734  -1.211  29.010  0.00  0.00     0.031 C 
BRANCH   5   6
ATOM      6  C28 U10 U 311      75.711  -1.489  27.830  0.00  0.00    -0.024 C 
ATOM      7  C29 U10 U 311      75.549  -1.159  26.541  0.00  0.00    -0.087 C 
ATOM      8  C30 U10 U 311      74.331  -0.564  25.945  0.00  0.00     0.043 C 
BRANCH   7   9
ATOM      9  C31 U10 U 311      76.625  -1.329  25.540  0.00  0.00     0.037 C 
BRANCH   9  10
ATOM     10  C32 U10 U 311      76.621  -0.242  24.401  0.00  0.00     0.031 C 
BRANCH  10  11
ATOM     11  C33 U10 U 311      76.731  -0.887  23.022  0.00  0.00    -0.024 C 
ATOM     12  C34 U10 U 311      76.072  -0.567  21.898  0.00  0.00    -0.087 C 
ATOM     13  C35 U10 U 311      75.070   0.545  21.689  0.00  0.00     0.043 C 
BRANCH  12  14
ATOM     14  C36 U10 U 311      76.137  -1.402  20.650  0.00  0.00     0.037 C 
BRANCH  14  15
ATOM     15  C37 U10 U 311      74.809  -1.501  19.920  0.00  0.00     0.031 C 
BRANCH  15  16
ATOM     16  C38 U10 U 311      74.331  -2.917  19.613  0.00  0.00    -0.024 C 
ATOM     17  C39 U10 U 311      73.594  -3.660  20.497  0.00  0.00    -0.087 C 
ATOM     18  C40 U10 U 311      73.109  -3.280  21.851  0.00  0.00     0.043 C 
BRANCH  17  19
ATOM     19  C41 U10 U 311      73.089  -5.025  20.135  0.00  0.00     0.037 C 
BRANCH  19  20
ATOM     20  C42 U10 U 311      73.207  -5.769  18.773  0.00  0.00     0.031 C 
BRANCH  20  21
ATOM     21  C43 U10 U 311      73.390  -7.241  18.774  0.00  0.00    -0.024 C 
ATOM     22  C44 U10 U 311      73.659  -8.022  17.709  0.00  0.00    -0.087 C 
ATOM     23  C45 U10 U 311      73.844  -7.580  16.321  0.00  0.00     0.043 C 
BRANCH  22  24
ATOM     24  C46 U10 U 311      73.843  -9.512  17.799  0.00  0.00     0.037 C 
BRANCH  24  25
ATOM     25  C47 U10 U 311      74.487 -10.300  16.625  0.00  0.00     0.031 C 
BRANCH  25  26
ATOM     26  C48 U10 U 311      73.430 -11.099  15.901  0.00  0.00    -0.024 C 
ATOM     27  C49 U10 U 311      73.068 -10.908  14.634  0.00  0.00    -0.087 C 
ATOM     28  C50 U10 U 311      73.641  -9.891  13.588  0.00  0.00     0.043 C 
BRANCH  27  29
ATOM     29  C51 U10 U 311      72.181 -11.834  13.921  0.00  0.00     0.037 C 
BRANCH  29  30
ATOM     30  C52 U10 U 311      72.626 -13.326  13.636  0.00  0.00     0.031 C 
BRANCH  30  31
ATOM     31  C53 U10 U 311      73.481 -13.406  12.389  0.00  0.00    -0.024 C 
ATOM     32  C54 U10 U 311      74.814 -13.306  12.324  0.00  0.00    -0.091 C 
ATOM     33  C56 U10 U 311      75.809 -13.074  13.412  0.00  0.00     0.042 C 
ATOM     34  C55 U10 U 311      75.541 -13.318  11.027  0.00  0.00     0.042 C 
ENDBRANCH  30  31
ENDBRANCH  29  30
ENDBRANCH  27  29
ENDBRANCH  25  26
ENDBRANCH  24  25
ENDBRANCH  22  24
ENDBRANCH  20  21
ENDBRANCH  19  20
ENDBRANCH  17  19
ENDBRANCH  15  16
ENDBRANCH  14  15
ENDBRANCH  12  14
ENDBRANCH  10  11
ENDBRANCH   9  10
ENDBRANCH   7   9
ENDBRANCH   5   6
ENDBRANCH   4   5
ENDBRANCH   2   4
BRANCH   1  35
ATOM     35  C22 U10 U 311      73.184  -1.748  33.529  0.00  0.00     0.031 C 
BRANCH  35  36
ATOM     36  C21 U10 U 311      72.534  -0.428  34.130  0.00  0.00     0.037 C 
BRANCH  36  37
ATOM     37  C19 U10 U 311      71.641  -0.496  35.400  0.00  0.00    -0.087 C 
ATOM     38  C18 U10 U 311      71.181  -1.599  35.916  0.00  0.00    -0.024 C 
ATOM     39  C20 U10 U 311      71.586   0.868  36.052  0.00  0.00     0.043 C 
BRANCH  38  40
ATOM     40  C17 U10 U 311      70.584  -1.745  37.272  0.00  0.00     0.031 C 
BRANCH  40  41
ATOM     41  C16 U10 U 311      71.622  -2.285  38.236  0.00  0.00     0.037 C 
BRANCH  41  42
ATOM     42  C14 U10 U 311      71.270  -2.026  39.684  0.00  0.00    -0.087 C 
ATOM     43  C15 U10 U 311      72.297  -1.185  40.421  0.00  0.00     0.043 C 
ATOM     44  C13 U10 U 311      70.090  -2.517  40.246  0.00  0.00    -0.024 C 
BRANCH  44  45
ATOM     45  C12 U10 U 311      69.651  -2.376  41.680  0.00  0.00     0.031 C 
BRANCH  45  46
ATOM     46  C11 U10 U 311      68.223  -2.060  42.122  0.00  0.00     0.037 C 
BRANCH  46  47
ATOM     47  C9  U10 U 311      67.672  -0.937  41.291  0.00  0.00    -0.087 C 
ATOM     48  C10 U10 U 311      66.475  -1.242  40.409  0.00  0.00     0.043 C 
ATOM     49  C8  U10 U 311      68.254   0.319  41.350  0.00  0.00    -0.020 C 
BRANCH  49  50
ATOM     50  C7  U10 U 311      67.815   1.545  40.670  0.00  0.00     0.071 C 
BRANCH  50  51
ATOM     51  C6  U10 U 311      68.823   2.736  40.490  0.00  0.00     0.008 A 
ATOM     52  C5  U10 U 311      68.285   3.982  39.997  0.00  0.00     0.215 A 
ATOM     53  C4  U10 U 311      69.102   5.084  39.916  0.00  0.00     0.156 A 
ATOM     54  O5  U10 U 311      67.171   3.953  39.482  0.00  0.00    -0.285 OA
ATOM     55  C3  U10 U 311      70.411   4.969  40.199  0.00  0.00     0.156 A 
ATOM     56  C2  U10 U 311      70.989   3.826  40.576  0.00  0.00     0.214 A 
ATOM     57  O2  U10 U 311      72.230   3.742  40.710  0.00  0.00    -0.285 OA
ATOM     58  C1  U10 U 311      70.271   2.689  40.805  0.00  0.00     0.002 A 
ATOM     59  C1M U10 U 311      70.799   1.565  41.509  0.00  0.00     0.053 C 
BRANCH  53  60
ATOM     60  O4  U10 U 311      68.591   6.202  39.412  0.00  0.00    -0.350 OA
ATOM     61  C4M U10 U 311      69.131   6.520  38.129  0.00  0.00     0.210 C 
ENDBRANCH  53  60
BRANCH  55  62
ATOM     62  O3  U10 U 311      71.212   6.035  40.022  0.00  0.00    -0.350 OA
ATOM     63  C3M U10 U 311      71.571   6.781  41.144  0.00  0.00     0.210 C 
ENDBRANCH  55  62
ENDBRANCH  50  51
ENDBRANCH  49  50
ENDBRANCH  46  47
ENDBRANCH  45  46
ENDBRANCH  44  45
ENDBRANCH  41  42
ENDBRANCH  40  41
ENDBRANCH  38  40
ENDBRANCH  36  37
ENDBRANCH  35  36
ENDBRANCH   1  35
TORSDOF 31
ENDMDL
MODEL 6
REMARK VINA RESULT:     -11.0      7.630     22.690
REMARK  31 active torsions:
REMARK  status: ('A' for Active; 'I' for Inactive)
REMARK    1  A    between atoms: C3_5  and  O3_7 
REMARK    2  A    between atoms: C4_8  and  O4_10 
REMARK    3  A    between atoms: C6_13  and  C7_14 
REMARK    4  A    between atoms: C7_14  and  C8_15 
REMARK    5  A    between atoms: C9_16  and  C11_18 
REMARK    6  A    between atoms: C11_18  and  C12_19 
REMARK    7  A    between atoms: C12_19  and  C13_20 
REMARK    8  A    between atoms: C14_21  and  C16_23 
REMARK    9  A    between atoms: C16_23  and  C17_24 
REMARK   10  A    between atoms: C17_24  and  C18_25 
REMARK   11  A    between atoms: C19_26  and  C21_28 
REMARK   12  A    between atoms: C21_28  and  C22_29 
REMARK   13  A    between atoms: C22_29  and  C23_30 
REMARK   14  A    between atoms: C24_31  and  C26_33 
REMARK   15  A    between atoms: C26_33  and  C27_34 
REMARK   16  A    between atoms: C27_34  and  C28_35 
REMARK   17  A    between atoms: C29_36  and  C31_38 
REMARK   18  A    between atoms: C31_38  and  C32_39 
REMARK   19  A    between atoms: C32_39  and  C33_40 
REMARK   20  A    between atoms: C34_41  and  C36_43 
REMARK   21  A    between atoms: C36_43  and  C37_44 
REMARK   22  A    between atoms: C37_44  and  C38_45 
REMARK   23  A    between atoms: C39_46  and  C41_48 
REMARK   24  A    between atoms: C41_48  and  C42_49 
REMARK   25  A    between atoms: C42_49  and  C43_50 
REMARK   26  A    between atoms: C44_51  and  C46_53 
REMARK   27  A    between atoms: C46_53  and  C47_54 
REMARK   28  A    between atoms: C47_54  and  C48_55 
REMARK   29  A    between atoms: C49_56  and  C51_58 
REMARK   30  A    between atoms: C51_58  and  C52_59 
REMARK   31  A    between atoms: C52_59  and  C53_60 
ROOT
ATOM      1  C23 U10 U 311      75.205   0.344  23.525  0.00  0.00    -0.024 C 
ATOM      2  C24 U10 U 311      76.162  -0.186  24.333  0.00  0.00    -0.087 C 
ATOM      3  C25 U10 U 311      77.665  -0.340  24.022  0.00  0.00     0.043 C 
ENDROOT
BRANCH   2   4
ATOM      4  C26 U10 U 311      75.774  -0.943  25.626  0.00  0.00     0.037 C 
BRANCH   4   5
ATOM      5  C27 U10 U 311      75.456  -0.115  26.949  0.00  0.00     0.031 C 
BRANCH   5   6
ATOM      6  C28 U10 U 311      74.997  -0.973  28.165  0.00  0.00    -0.024 C 
ATOM      7  C29 U10 U 311      73.743  -1.298  28.507  0.00  0.00    -0.087 C 
ATOM      8  C30 U10 U 311      72.510  -0.795  27.859  0.00  0.00     0.043 C 
BRANCH   7   9
ATOM      9  C31 U10 U 311      73.443  -2.260  29.590  0.00  0.00     0.037 C 
BRANCH   9  10
ATOM     10  C32 U10 U 311      73.253  -1.594  31.005  0.00  0.00     0.031 C 
BRANCH  10  11
ATOM     11  C33 U10 U 311      73.470  -2.608  32.125  0.00  0.00    -0.024 C 
ATOM     12  C34 U10 U 311      74.622  -3.146  32.550  0.00  0.00    -0.087 C 
ATOM     13  C35 U10 U 311      76.022  -2.863  32.056  0.00  0.00     0.043 C 
BRANCH  12  14
ATOM     14  C36 U10 U 311      74.678  -4.274  33.542  0.00  0.00     0.037 C 
BRANCH  14  15
ATOM     15  C37 U10 U 311      73.348  -4.542  34.226  0.00  0.00     0.031 C 
BRANCH  15  16
ATOM     16  C38 U10 U 311      73.154  -3.860  35.576  0.00  0.00    -0.024 C 
ATOM     17  C39 U10 U 311      72.088  -3.044  35.850  0.00  0.00    -0.087 C 
ATOM     18  C40 U10 U 311      70.948  -2.678  34.966  0.00  0.00     0.043 C 
BRANCH  17  19
ATOM     19  C41 U10 U 311      71.898  -2.440  37.210  0.00  0.00     0.037 C 
BRANCH  19  20
ATOM     20  C42 U10 U 311      70.587  -2.322  38.039  0.00  0.00     0.031 C 
BRANCH  20  21
ATOM     21  C43 U10 U 311      70.641  -1.691  39.381  0.00  0.00    -0.024 C 
ATOM     22  C44 U10 U 311      69.596  -1.246  40.106  0.00  0.00    -0.087 C 
ATOM     23  C45 U10 U 311      68.178  -1.305  39.730  0.00  0.00     0.043 C 
BRANCH  22  24
ATOM     24  C46 U10 U 311      69.737  -0.629  41.471  0.00  0.00     0.037 C 
BRANCH  24  25
ATOM     25  C47 U10 U 311      69.334   0.852  41.712  0.00  0.00     0.031 C 
BRANCH  25  26
ATOM     26  C48 U10 U 311      70.497   1.761  41.391  0.00  0.00    -0.024 C 
ATOM     27  C49 U10 U 311      70.788   2.222  40.177  0.00  0.00    -0.087 C 
ATOM     28  C50 U10 U 311      70.020   2.000  38.828  0.00  0.00     0.043 C 
BRANCH  27  29
ATOM     29  C51 U10 U 311      71.805   3.254  39.949  0.00  0.00     0.037 C 
BRANCH  29  30
ATOM     30  C52 U10 U 311      71.637   4.707  40.556  0.00  0.00     0.031 C 
BRANCH  30  31
ATOM     31  C53 U10 U 311      70.892   5.610  39.597  0.00  0.00    -0.024 C 
ATOM     32  C54 U10 U 311      69.564   5.752  39.497  0.00  0.00    -0.091 C 
ATOM     33  C56 U10 U 311      68.472   5.075  40.255  0.00  0.00     0.042 C 
ATOM     34  C55 U10 U 311      68.941   6.611  38.456  0.00  0.00     0.042 C 
ENDBRANCH  30  31
ENDBRANCH  29  30
ENDBRANCH  27  29
ENDBRANCH  25  26
ENDBRANCH  24  25
ENDBRANCH  22  24
ENDBRANCH  20  21
ENDBRANCH  19  20
ENDBRANCH  17  19
ENDBRANCH  15  16
ENDBRANCH  14  15
ENDBRANCH  12  14
ENDBRANCH  10  11
ENDBRANCH   9  10
ENDBRANCH   7   9
ENDBRANCH   5   6
ENDBRANCH   4   5
ENDBRANCH   2   4
BRANCH   1  35
ATOM     35  C22 U10 U 311      75.626   1.161  22.304  0.00  0.00     0.031 C 
BRANCH  35  36
ATOM     36  C21 U10 U 311      75.318   0.410  20.936  0.00  0.00     0.037 C 
BRANCH  36  37
ATOM     37  C19 U10 U 311      74.038  -0.456  20.782  0.00  0.00    -0.087 C 
ATOM     38  C18 U10 U 311      73.963  -1.718  21.091  0.00  0.00    -0.024 C 
ATOM     39  C20 U10 U 311      72.864   0.436  20.442  0.00  0.00     0.043 C 
BRANCH  38  40
ATOM     40  C17 U10 U 311      72.709  -2.506  21.244  0.00  0.00     0.031 C 
BRANCH  40  41
ATOM     41  C16 U10 U 311      73.041  -3.936  21.624  0.00  0.00     0.037 C 
BRANCH  41  42
ATOM     42  C14 U10 U 311      72.931  -4.894  20.459  0.00  0.00    -0.087 C 
ATOM     43  C15 U10 U 311      72.069  -4.376  19.322  0.00  0.00     0.043 C 
ATOM     44  C13 U10 U 311      73.594  -6.123  20.462  0.00  0.00    -0.024 C 
BRANCH  44  45
ATOM     45  C12 U10 U 311      73.524  -7.184  19.395  0.00  0.00     0.031 C 
BRANCH  45  46
ATOM     46  C11 U10 U 311      73.841  -6.951  17.920  0.00  0.00     0.037 C 
BRANCH  46  47
ATOM     47  C9  U10 U 311      73.671  -8.233  17.156  0.00  0.00    -0.087 C 
ATOM     48  C10 U10 U 311      73.560  -8.138  15.645  0.00  0.00     0.043 C 
ATOM     49  C8  U10 U 311      73.624  -9.441  17.832  0.00  0.00    -0.020 C 
BRANCH  49  50
ATOM     50  C7  U10 U 311      73.533 -10.790  17.257  0.00  0.00     0.071 C 
BRANCH  50  51
ATOM     51  C6  U10 U 311      74.144 -11.073  15.838  0.00  0.00     0.008 A 
ATOM     52  C5  U10 U 311      73.216 -11.337  14.764  0.00  0.00     0.215 A 
ATOM     53  C4  U10 U 311      73.692 -11.491  13.485  0.00  0.00     0.156 A 
ATOM     54  O5  U10 U 311      72.059 -11.612  15.070  0.00  0.00    -0.285 OA
ATOM     55  C3  U10 U 311      75.017 -11.496  13.259  0.00  0.00     0.156 A 
ATOM     56  C2  U10 U 311      75.932 -11.345  14.219  0.00  0.00     0.214 A 
ATOM     57  O2  U10 U 311      77.152 -11.478  13.978  0.00  0.00    -0.285 OA
ATOM     58  C1  U10 U 311      75.591 -11.069  15.511  0.00  0.00     0.002 A 
ATOM     59  C1M U10 U 311      76.526 -10.587  16.476  0.00  0.00     0.053 C 
BRANCH  53  60
ATOM     60  O4  U10 U 311      72.819 -11.782  12.527  0.00  0.00    -0.350 OA
ATOM     61  C4M U10 U 311      72.381 -13.141  12.579  0.00  0.00     0.210 C 
ENDBRANCH  53  60
BRANCH  55  62
ATOM     62  O3  U10 U 311      75.466 -11.743  12.015  0.00  0.00    -0.350 OA
ATOM     63  C3M U10 U 311      75.837 -13.049  11.697  0.00  0.00     0.210 C 
ENDBRANCH  55  62
ENDBRANCH  50  51
ENDBRANCH  49  50
ENDBRANCH  46  47
ENDBRANCH  45  46
ENDBRANCH  44  45
ENDBRANCH  41  42
ENDBRANCH  40  41
ENDBRANCH  38  40
ENDBRANCH  36  37
ENDBRANCH  35  36
ENDBRANCH   1  35
TORSDOF 31
ENDMDL
MODEL 7
REMARK VINA RESULT:     -11.0      1.186      3.450
REMARK  31 active torsions:
REMARK  status: ('A' for Active; 'I' for Inactive)
REMARK    1  A    between atoms: C3_5  and  O3_7 
REMARK    2  A    between atoms: C4_8  and  O4_10 
REMARK    3  A    between atoms: C6_13  and  C7_14 
REMARK    4  A    between atoms: C7_14  and  C8_15 
REMARK    5  A    between atoms: C9_16  and  C11_18 
REMARK    6  A    between atoms: C11_18  and  C12_19 
REMARK    7  A    between atoms: C12_19  and  C13_20 
REMARK    8  A    between atoms: C14_21  and  C16_23 
REMARK    9  A    between atoms: C16_23  and  C17_24 
REMARK   10  A    between atoms: C17_24  and  C18_25 
REMARK   11  A    between atoms: C19_26  and  C21_28 
REMARK   12  A    between atoms: C21_28  and  C22_29 
REMARK   13  A    between atoms: C22_29  and  C23_30 
REMARK   14  A    between atoms: C24_31  and  C26_33 
REMARK   15  A    between atoms: C26_33  and  C27_34 
REMARK   16  A    between atoms: C27_34  and  C28_35 
REMARK   17  A    between atoms: C29_36  and  C31_38 
REMARK   18  A    between atoms: C31_38  and  C32_39 
REMARK   19  A    between atoms: C32_39  and  C33_40 
REMARK   20  A    between atoms: C34_41  and  C36_43 
REMARK   21  A    between atoms: C36_43  and  C37_44 
REMARK   22  A    between atoms: C37_44  and  C38_45 
REMARK   23  A    between atoms: C39_46  and  C41_48 
REMARK   24  A    between atoms: C41_48  and  C42_49 
REMARK   25  A    between atoms: C42_49  and  C43_50 
REMARK   26  A    between atoms: C44_51  and  C46_53 
REMARK   27  A    between atoms: C46_53  and  C47_54 
REMARK   28  A    between atoms: C47_54  and  C48_55 
REMARK   29  A    between atoms: C49_56  and  C51_58 
REMARK   30  A    between atoms: C51_58  and  C52_59 
REMARK   31  A    between atoms: C52_59  and  C53_60 
ROOT
ATOM      1  C23 U10 U 311      75.023  -0.331  24.402  0.00  0.00    -0.024 C 
ATOM      2  C24 U10 U 311      73.671  -0.411  24.524  0.00  0.00    -0.087 C 
ATOM      3  C25 U10 U 311      72.860  -0.599  25.823  0.00  0.00     0.043 C 
ENDROOT
BRANCH   2   4
ATOM      4  C26 U10 U 311      72.772  -0.563  23.273  0.00  0.00     0.037 C 
BRANCH   4   5
ATOM      5  C27 U10 U 311      73.251   0.059  21.888  0.00  0.00     0.031 C 
BRANCH   5   6
ATOM      6  C28 U10 U 311      73.369  -0.960  20.716  0.00  0.00    -0.024 C 
ATOM      7  C29 U10 U 311      74.451  -1.661  20.350  0.00  0.00    -0.087 C 
ATOM      8  C30 U10 U 311      75.812  -1.513  20.916  0.00  0.00     0.043 C 
BRANCH   7   9
ATOM      9  C31 U10 U 311      74.394  -2.725  19.324  0.00  0.00     0.037 C 
BRANCH   9  10
ATOM     10  C32 U10 U 311      73.113  -3.637  19.415  0.00  0.00     0.031 C 
BRANCH  10  11
ATOM     11  C33 U10 U 311      73.424  -5.069  18.989  0.00  0.00    -0.024 C 
ATOM     12  C34 U10 U 311      73.477  -6.171  19.751  0.00  0.00    -0.087 C 
ATOM     13  C35 U10 U 311      73.206  -6.296  21.232  0.00  0.00     0.043 C 
BRANCH  12  14
ATOM     14  C36 U10 U 311      73.976  -7.493  19.237  0.00  0.00     0.037 C 
BRANCH  14  15
ATOM     15  C37 U10 U 311      73.684  -7.717  17.763  0.00  0.00     0.031 C 
BRANCH  15  16
ATOM     16  C38 U10 U 311      73.758  -9.166  17.291  0.00  0.00    -0.024 C 
ATOM     17  C39 U10 U 311      73.711  -9.519  15.968  0.00  0.00    -0.087 C 
ATOM     18  C40 U10 U 311      73.604  -8.637  14.774  0.00  0.00     0.043 C 
BRANCH  17  19
ATOM     19  C41 U10 U 311      73.849 -10.950  15.539  0.00  0.00     0.037 C 
BRANCH  19  20
ATOM     20  C42 U10 U 311      73.185 -11.662  14.325  0.00  0.00     0.031 C 
BRANCH  20  21
ATOM     21  C43 U10 U 311      74.008 -12.570  13.489  0.00  0.00    -0.024 C 
ATOM     22  C44 U10 U 311      74.652 -12.254  12.347  0.00  0.00    -0.087 C 
ATOM     23  C45 U10 U 311      74.689 -10.939  11.696  0.00  0.00     0.043 C 
BRANCH  22  24
ATOM     24  C46 U10 U 311      75.480 -13.235  11.564  0.00  0.00     0.037 C 
BRANCH  24  25
ATOM     25  C47 U10 U 311      74.799 -14.380  10.765  0.00  0.00     0.031 C 
BRANCH  25  26
ATOM     26  C48 U10 U 311      75.421 -14.490   9.392  0.00  0.00    -0.024 C 
ATOM     27  C49 U10 U 311      74.959 -15.257   8.408  0.00  0.00    -0.087 C 
ATOM     28  C50 U10 U 311      73.685 -16.171   8.387  0.00  0.00     0.043 C 
BRANCH  27  29
ATOM     29  C51 U10 U 311      75.479 -15.180   7.039  0.00  0.00     0.037 C 
BRANCH  29  30
ATOM     30  C52 U10 U 311      77.002 -14.841   6.767  0.00  0.00     0.031 C 
BRANCH  30  31
ATOM     31  C53 U10 U 311      77.844 -16.099   6.772  0.00  0.00    -0.024 C 
ATOM     32  C54 U10 U 311      78.562 -16.578   7.796  0.00  0.00    -0.091 C 
ATOM     33  C56 U10 U 311      78.755 -16.026   9.169  0.00  0.00     0.042 C 
ATOM     34  C55 U10 U 311      79.421 -17.784   7.657  0.00  0.00     0.042 C 
ENDBRANCH  30  31
ENDBRANCH  29  30
ENDBRANCH  27  29
ENDBRANCH  25  26
ENDBRANCH  24  25
ENDBRANCH  22  24
ENDBRANCH  20  21
ENDBRANCH  19  20
ENDBRANCH  17  19
ENDBRANCH  15  16
ENDBRANCH  14  15
ENDBRANCH  12  14
ENDBRANCH  10  11
ENDBRANCH   9  10
ENDBRANCH   7   9
ENDBRANCH   5   6
ENDBRANCH   4   5
ENDBRANCH   2   4
BRANCH   1  35
ATOM     35  C22 U10 U 311      75.873  -0.091  25.650  0.00  0.00     0.031 C 
BRANCH  35  36
ATOM     36  C21 U10 U 311      76.606  -1.412  26.146  0.00  0.00     0.037 C 
BRANCH  36  37
ATOM     37  C19 U10 U 311      76.554  -1.830  27.641  0.00  0.00    -0.087 C 
ATOM     38  C18 U10 U 311      75.615  -1.473  28.471  0.00  0.00    -0.024 C 
ATOM     39  C20 U10 U 311      77.612  -2.875  27.911  0.00  0.00     0.043 C 
BRANCH  38  40
ATOM     40  C17 U10 U 311      75.357  -2.076  29.808  0.00  0.00     0.031 C 
BRANCH  40  41
ATOM     41  C16 U10 U 311      73.864  -2.218  30.030  0.00  0.00     0.037 C 
BRANCH  41  42
ATOM     42  C14 U10 U 311      73.499  -2.367  31.490  0.00  0.00    -0.087 C 
ATOM     43  C15 U10 U 311      74.461  -3.243  32.273  0.00  0.00     0.043 C 
ATOM     44  C13 U10 U 311      72.383  -1.726  32.030  0.00  0.00    -0.024 C 
BRANCH  44  45
ATOM     45  C12 U10 U 311      71.882  -1.835  33.447  0.00  0.00     0.031 C 
BRANCH  45  46
ATOM     46  C11 U10 U 311      72.737  -1.591  34.689  0.00  0.00     0.037 C 
BRANCH  46  47
ATOM     47  C9  U10 U 311      72.248  -0.367  35.408  0.00  0.00    -0.087 C 
ATOM     48  C10 U10 U 311      72.107   0.910  34.599  0.00  0.00     0.043 C 
ATOM     49  C8  U10 U 311      71.942  -0.431  36.757  0.00  0.00    -0.020 C 
BRANCH  49  50
ATOM     50  C7  U10 U 311      71.390   0.634  37.606  0.00  0.00     0.071 C 
BRANCH  50  51
ATOM     51  C6  U10 U 311      70.646   0.260  38.938  0.00  0.00     0.008 A 
ATOM     52  C5  U10 U 311      69.318   0.794  39.119  0.00  0.00     0.215 A 
ATOM     53  C4  U10 U 311      68.585   0.416  40.218  0.00  0.00     0.156 A 
ATOM     54  O5  U10 U 311      68.973   1.718  38.388  0.00  0.00    -0.285 OA
ATOM     55  C3  U10 U 311      69.144  -0.360  41.162  0.00  0.00     0.156 A 
ATOM     56  C2  U10 U 311      70.397  -0.816  41.098  0.00  0.00     0.214 A 
ATOM     57  O2  U10 U 311      70.910  -1.434  42.057  0.00  0.00    -0.285 OA
ATOM     58  C1  U10 U 311      71.191  -0.610  40.008  0.00  0.00     0.002 A 
ATOM     59  C1M U10 U 311      72.392  -1.344  39.771  0.00  0.00     0.053 C 
BRANCH  53  60
ATOM     60  O4  U10 U 311      67.385   0.963  40.384  0.00  0.00    -0.350 OA
ATOM     61  C4M U10 U 311      66.336   0.154  39.848  0.00  0.00     0.210 C 
ENDBRANCH  53  60
BRANCH  55  62
ATOM     62  O3  U10 U 311      68.443  -0.640  42.276  0.00  0.00    -0.350 OA
ATOM     63  C3M U10 U 311      67.908  -1.921  42.413  0.00  0.00     0.210 C 
ENDBRANCH  55  62
ENDBRANCH  50  51
ENDBRANCH  49  50
ENDBRANCH  46  47
ENDBRANCH  45  46
ENDBRANCH  44  45
ENDBRANCH  41  42
ENDBRANCH  40  41
ENDBRANCH  38  40
ENDBRANCH  36  37
ENDBRANCH  35  36
ENDBRANCH   1  35
TORSDOF 31
ENDMDL
MODEL 8
REMARK VINA RESULT:     -11.0      2.211      4.551
REMARK  31 active torsions:
REMARK  status: ('A' for Active; 'I' for Inactive)
REMARK    1  A    between atoms: C3_5  and  O3_7 
REMARK    2  A    between atoms: C4_8  and  O4_10 
REMARK    3  A    between atoms: C6_13  and  C7_14 
REMARK    4  A    between atoms: C7_14  and  C8_15 
REMARK    5  A    between atoms: C9_16  and  C11_18 
REMARK    6  A    between atoms: C11_18  and  C12_19 
REMARK    7  A    between atoms: C12_19  and  C13_20 
REMARK    8  A    between atoms: C14_21  and  C16_23 
REMARK    9  A    between atoms: C16_23  and  C17_24 
REMARK   10  A    between atoms: C17_24  and  C18_25 
REMARK   11  A    between atoms: C19_26  and  C21_28 
REMARK   12  A    between atoms: C21_28  and  C22_29 
REMARK   13  A    between atoms: C22_29  and  C23_30 
REMARK   14  A    between atoms: C24_31  and  C26_33 
REMARK   15  A    between atoms: C26_33  and  C27_34 
REMARK   16  A    between atoms: C27_34  and  C28_35 
REMARK   17  A    between atoms: C29_36  and  C31_38 
REMARK   18  A    between atoms: C31_38  and  C32_39 
REMARK   19  A    between atoms: C32_39  and  C33_40 
REMARK   20  A    between atoms: C34_41  and  C36_43 
REMARK   21  A    between atoms: C36_43  and  C37_44 
REMARK   22  A    between atoms: C37_44  and  C38_45 
REMARK   23  A    between atoms: C39_46  and  C41_48 
REMARK   24  A    between atoms: C41_48  and  C42_49 
REMARK   25  A    between atoms: C42_49  and  C43_50 
REMARK   26  A    between atoms: C44_51  and  C46_53 
REMARK   27  A    between atoms: C46_53  and  C47_54 
REMARK   28  A    between atoms: C47_54  and  C48_55 
REMARK   29  A    between atoms: C49_56  and  C51_58 
REMARK   30  A    between atoms: C51_58  and  C52_59 
REMARK   31  A    between atoms: C52_59  and  C53_60 
ROOT
ATOM      1  C23 U10 U 311      75.125  -1.642  23.761  0.00  0.00    -0.024 C 
ATOM      2  C24 U10 U 311      75.599  -0.901  22.724  0.00  0.00    -0.087 C 
ATOM      3  C25 U10 U 311      75.479   0.625  22.535  0.00  0.00     0.043 C 
ENDROOT
BRANCH   2   4
ATOM      4  C26 U10 U 311      76.133  -1.587  21.443  0.00  0.00     0.037 C 
BRANCH   4   5
ATOM      5  C27 U10 U 311      75.297  -1.477  20.093  0.00  0.00     0.031 C 
BRANCH   5   6
ATOM      6  C28 U10 U 311      74.530  -2.770  19.689  0.00  0.00    -0.024 C 
ATOM      7  C29 U10 U 311      73.341  -3.190  20.144  0.00  0.00    -0.087 C 
ATOM      8  C30 U10 U 311      72.561  -2.563  21.235  0.00  0.00     0.043 C 
BRANCH   7   9
ATOM      9  C31 U10 U 311      72.637  -4.352  19.559  0.00  0.00     0.037 C 
BRANCH   9  10
ATOM     10  C32 U10 U 311      73.527  -5.645  19.432  0.00  0.00     0.031 C 
BRANCH  10  11
ATOM     11  C33 U10 U 311      73.411  -6.261  18.040  0.00  0.00    -0.024 C 
ATOM     12  C34 U10 U 311      73.557  -7.545  17.682  0.00  0.00    -0.087 C 
ATOM     13  C35 U10 U 311      73.837  -8.735  18.571  0.00  0.00     0.043 C 
BRANCH  12  14
ATOM     14  C36 U10 U 311      73.601  -7.991  16.247  0.00  0.00     0.037 C 
BRANCH  14  15
ATOM     15  C37 U10 U 311      74.257  -9.348  16.058  0.00  0.00     0.031 C 
BRANCH  15  16
ATOM     16  C38 U10 U 311      73.376 -10.421  15.424  0.00  0.00    -0.024 C 
ATOM     17  C39 U10 U 311      73.191 -10.527  14.071  0.00  0.00    -0.087 C 
ATOM     18  C40 U10 U 311      73.777  -9.694  12.986  0.00  0.00     0.043 C 
BRANCH  17  19
ATOM     19  C41 U10 U 311      72.368 -11.633  13.481  0.00  0.00     0.037 C 
BRANCH  19  20
ATOM     20  C42 U10 U 311      72.775 -13.115  13.237  0.00  0.00     0.031 C 
BRANCH  20  21
ATOM     21  C43 U10 U 311      73.787 -13.418  12.196  0.00  0.00    -0.024 C 
ATOM     22  C44 U10 U 311      75.126 -13.317  12.318  0.00  0.00    -0.087 C 
ATOM     23  C45 U10 U 311      75.869 -12.900  13.513  0.00  0.00     0.043 C 
BRANCH  22  24
ATOM     24  C46 U10 U 311      76.087 -13.660  11.212  0.00  0.00     0.037 C 
BRANCH  24  25
ATOM     25  C47 U10 U 311      75.566 -13.957   9.779  0.00  0.00     0.031 C 
BRANCH  25  26
ATOM     26  C48 U10 U 311      75.161 -15.408   9.670  0.00  0.00    -0.024 C 
ATOM     27  C49 U10 U 311      74.566 -15.953   8.611  0.00  0.00    -0.087 C 
ATOM     28  C50 U10 U 311      74.185 -15.287   7.244  0.00  0.00     0.043 C 
BRANCH  27  29
ATOM     29  C51 U10 U 311      74.372 -17.400   8.475  0.00  0.00     0.037 C 
BRANCH  29  30
ATOM     30  C52 U10 U 311      72.917 -18.026   8.468  0.00  0.00     0.031 C 
BRANCH  30  31
ATOM     31  C53 U10 U 311      72.966 -19.502   8.133  0.00  0.00    -0.024 C 
ATOM     32  C54 U10 U 311      72.071 -20.433   8.485  0.00  0.00    -0.091 C 
ATOM     33  C56 U10 U 311      70.825 -20.302   9.295  0.00  0.00     0.042 C 
ATOM     34  C55 U10 U 311      72.268 -21.872   8.167  0.00  0.00     0.042 C 
ENDBRANCH  30  31
ENDBRANCH  29  30
ENDBRANCH  27  29
ENDBRANCH  25  26
ENDBRANCH  24  25
ENDBRANCH  22  24
ENDBRANCH  20  21
ENDBRANCH  19  20
ENDBRANCH  17  19
ENDBRANCH  15  16
ENDBRANCH  14  15
ENDBRANCH  12  14
ENDBRANCH  10  11
ENDBRANCH   9  10
ENDBRANCH   7   9
ENDBRANCH   5   6
ENDBRANCH   4   5
ENDBRANCH   2   4
BRANCH   1  35
ATOM     35  C22 U10 U 311      74.689  -0.936  25.045  0.00  0.00     0.031 C 
BRANCH  35  36
ATOM     36  C21 U10 U 311      75.915  -0.607  26.002  0.00  0.00     0.037 C 
BRANCH  36  37
ATOM     37  C19 U10 U 311      76.062  -1.324  27.372  0.00  0.00    -0.087 C 
ATOM     38  C18 U10 U 311      75.322  -1.076  28.414  0.00  0.00    -0.024 C 
ATOM     39  C20 U10 U 311      77.021  -2.485  27.235  0.00  0.00     0.043 C 
BRANCH  38  40
ATOM     40  C17 U10 U 311      75.220  -1.923  29.634  0.00  0.00     0.031 C 
BRANCH  40  41
ATOM     41  C16 U10 U 311      73.950  -1.586  30.392  0.00  0.00     0.037 C 
BRANCH  41  42
ATOM     42  C14 U10 U 311      73.865  -2.277  31.734  0.00  0.00    -0.087 C 
ATOM     43  C15 U10 U 311      74.972  -3.290  31.970  0.00  0.00     0.043 C 
ATOM     44  C13 U10 U 311      72.856  -1.970  32.649  0.00  0.00    -0.024 C 
BRANCH  44  45
ATOM     45  C12 U10 U 311      72.630  -2.621  33.989  0.00  0.00     0.031 C 
BRANCH  45  46
ATOM     46  C11 U10 U 311      71.295  -2.636  34.730  0.00  0.00     0.037 C 
BRANCH  46  47
ATOM     47  C9  U10 U 311      71.439  -1.931  36.048  0.00  0.00    -0.087 C 
ATOM     48  C10 U10 U 311      71.936  -2.748  37.227  0.00  0.00     0.043 C 
ATOM     49  C8  U10 U 311      71.124  -0.586  36.153  0.00  0.00    -0.020 C 
BRANCH  49  50
ATOM     50  C7  U10 U 311      71.266   0.281  37.330  0.00  0.00     0.071 C 
BRANCH  50  51
ATOM     51  C6  U10 U 311      70.426  -0.020  38.623  0.00  0.00     0.008 A 
ATOM     52  C5  U10 U 311      68.991  -0.074  38.474  0.00  0.00     0.215 A 
ATOM     53  C4  U10 U 311      68.215  -0.433  39.550  0.00  0.00     0.156 A 
ATOM     54  O5  U10 U 311      68.509   0.394  37.446  0.00  0.00    -0.285 OA
ATOM     55  C3  U10 U 311      68.785  -0.629  40.751  0.00  0.00     0.156 A 
ATOM     56  C2  U10 U 311      70.096  -0.508  40.977  0.00  0.00     0.214 A 
ATOM     57  O2  U10 U 311      70.562  -0.581  42.134  0.00  0.00    -0.285 OA
ATOM     58  C1  U10 U 311      70.988  -0.270  39.972  0.00  0.00     0.002 A 
ATOM     59  C1M U10 U 311      72.395  -0.457  40.121  0.00  0.00     0.053 C 
BRANCH  53  60
ATOM     60  O4  U10 U 311      66.895  -0.426  39.395  0.00  0.00    -0.350 OA
ATOM     61  C4M U10 U 311      66.298   0.792  39.841  0.00  0.00     0.210 C 
ENDBRANCH  53  60
BRANCH  55  62
ATOM     62  O3  U10 U 311      67.999  -0.885  41.812  0.00  0.00    -0.350 OA
ATOM     63  C3M U10 U 311      67.894  -2.204  42.250  0.00  0.00     0.210 C 
ENDBRANCH  55  62
ENDBRANCH  50  51
ENDBRANCH  49  50
ENDBRANCH  46  47
ENDBRANCH  45  46
ENDBRANCH  44  45
ENDBRANCH  41  42
ENDBRANCH  40  41
ENDBRANCH  38  40
ENDBRANCH  36  37
ENDBRANCH  35  36
ENDBRANCH   1  35
TORSDOF 31
ENDMDL
MODEL 9
REMARK VINA RESULT:     -11.0      1.953      5.512
REMARK  31 active torsions:
REMARK  status: ('A' for Active; 'I' for Inactive)
REMARK    1  A    between atoms: C3_5  and  O3_7 
REMARK    2  A    between atoms: C4_8  and  O4_10 
REMARK    3  A    between atoms: C6_13  and  C7_14 
REMARK    4  A    between atoms: C7_14  and  C8_15 
REMARK    5  A    between atoms: C9_16  and  C11_18 
REMARK    6  A    between atoms: C11_18  and  C12_19 
REMARK    7  A    between atoms: C12_19  and  C13_20 
REMARK    8  A    between atoms: C14_21  and  C16_23 
REMARK    9  A    between atoms: C16_23  and  C17_24 
REMARK   10  A    between atoms: C17_24  and  C18_25 
REMARK   11  A    between atoms: C19_26  and  C21_28 
REMARK   12  A    between atoms: C21_28  and  C22_29 
REMARK   13  A    between atoms: C22_29  and  C23_30 
REMARK   14  A    between atoms: C24_31  and  C26_33 
REMARK   15  A    between atoms: C26_33  and  C27_34 
REMARK   16  A    between atoms: C27_34  and  C28_35 
REMARK   17  A    between atoms: C29_36  and  C31_38 
REMARK   18  A    between atoms: C31_38  and  C32_39 
REMARK   19  A    between atoms: C32_39  and  C33_40 
REMARK   20  A    between atoms: C34_41  and  C36_43 
REMARK   21  A    between atoms: C36_43  and  C37_44 
REMARK   22  A    between atoms: C37_44  and  C38_45 
REMARK   23  A    between atoms: C39_46  and  C41_48 
REMARK   24  A    between atoms: C41_48  and  C42_49 
REMARK   25  A    between atoms: C42_49  and  C43_50 
REMARK   26  A    between atoms: C44_51  and  C46_53 
REMARK   27  A    between atoms: C46_53  and  C47_54 
REMARK   28  A    between atoms: C47_54  and  C48_55 
REMARK   29  A    between atoms: C49_56  and  C51_58 
REMARK   30  A    between atoms: C51_58  and  C52_59 
REMARK   31  A    between atoms: C52_59  and  C53_60 
ROOT
ATOM      1  C23 U10 U 311      73.623  -3.539  32.434  0.00  0.00    -0.024 C 
ATOM      2  C24 U10 U 311      74.575  -2.943  31.668  0.00  0.00    -0.087 C 
ATOM      3  C25 U10 U 311      76.047  -2.677  32.045  0.00  0.00     0.043 C 
ENDROOT
BRANCH   2   4
ATOM      4  C26 U10 U 311      74.192  -2.219  30.354  0.00  0.00     0.037 C 
BRANCH   4   5
ATOM      5  C27 U10 U 311      72.941  -2.735  29.515  0.00  0.00     0.031 C 
BRANCH   5   6
ATOM      6  C28 U10 U 311      73.042  -2.509  27.978  0.00  0.00    -0.024 C 
ATOM      7  C29 U10 U 311      72.723  -1.402  27.293  0.00  0.00    -0.087 C 
ATOM      8  C30 U10 U 311      72.080  -0.192  27.854  0.00  0.00     0.043 C 
BRANCH   7   9
ATOM      9  C31 U10 U 311      73.022  -1.250  25.853  0.00  0.00     0.037 C 
BRANCH   9  10
ATOM     10  C32 U10 U 311      74.148  -0.194  25.538  0.00  0.00     0.031 C 
BRANCH  10  11
ATOM     11  C33 U10 U 311      74.517  -0.205  24.057  0.00  0.00    -0.024 C 
ATOM     12  C34 U10 U 311      75.721  -0.013  23.498  0.00  0.00    -0.087 C 
ATOM     13  C35 U10 U 311      77.043   0.228  24.189  0.00  0.00     0.043 C 
BRANCH  12  14
ATOM     14  C36 U10 U 311      75.916   0.134  22.015  0.00  0.00     0.037 C 
BRANCH  14  15
ATOM     15  C37 U10 U 311      76.083  -1.192  21.294  0.00  0.00     0.031 C 
BRANCH  15  16
ATOM     16  C38 U10 U 311      74.904  -1.622  20.426  0.00  0.00    -0.024 C 
ATOM     17  C39 U10 U 311      73.896  -2.426  20.889  0.00  0.00    -0.087 C 
ATOM     18  C40 U10 U 311      73.721  -3.006  22.248  0.00  0.00     0.043 C 
BRANCH  17  19
ATOM     19  C41 U10 U 311      72.720  -2.776  20.025  0.00  0.00     0.037 C 
BRANCH  19  20
ATOM     20  C42 U10 U 311      72.118  -4.182  19.739  0.00  0.00     0.031 C 
BRANCH  20  21
ATOM     21  C43 U10 U 311      72.678  -4.989  18.628  0.00  0.00    -0.024 C 
ATOM     22  C44 U10 U 311      73.381  -6.135  18.736  0.00  0.00    -0.087 C 
ATOM     23  C45 U10 U 311      73.729  -6.836  19.978  0.00  0.00     0.043 C 
BRANCH  22  24
ATOM     24  C46 U10 U 311      73.903  -6.901  17.552  0.00  0.00     0.037 C 
BRANCH  24  25
ATOM     25  C47 U10 U 311      73.969  -8.453  17.585  0.00  0.00     0.031 C 
BRANCH  25  26
ATOM     26  C48 U10 U 311      73.538  -9.014  16.250  0.00  0.00    -0.024 C 
ATOM     27  C49 U10 U 311      73.817 -10.241  15.816  0.00  0.00    -0.087 C 
ATOM     28  C50 U10 U 311      74.585 -11.395  16.548  0.00  0.00     0.043 C 
BRANCH  27  29
ATOM     29  C51 U10 U 311      73.212 -10.804  14.604  0.00  0.00     0.037 C 
BRANCH  29  30
ATOM     30  C52 U10 U 311      73.559 -10.215  13.175  0.00  0.00     0.031 C 
BRANCH  30  31
ATOM     31  C53 U10 U 311      73.942 -11.319  12.214  0.00  0.00    -0.024 C 
ATOM     32  C54 U10 U 311      75.080 -12.026  12.219  0.00  0.00    -0.091 C 
ATOM     33  C56 U10 U 311      76.265 -11.923  13.119  0.00  0.00     0.042 C 
ATOM     34  C55 U10 U 311      75.382 -13.035  11.169  0.00  0.00     0.042 C 
ENDBRANCH  30  31
ENDBRANCH  29  30
ENDBRANCH  27  29
ENDBRANCH  25  26
ENDBRANCH  24  25
ENDBRANCH  22  24
ENDBRANCH  20  21
ENDBRANCH  19  20
ENDBRANCH  17  19
ENDBRANCH  15  16
ENDBRANCH  14  15
ENDBRANCH  12  14
ENDBRANCH  10  11
ENDBRANCH   9  10
ENDBRANCH   7   9
ENDBRANCH   5   6
ENDBRANCH   4   5
ENDBRANCH   2   4
BRANCH   1  35
ATOM     35  C22 U10 U 311      74.047  -4.321  33.678  0.00  0.00     0.031 C 
BRANCH  35  36
ATOM     36  C21 U10 U 311      72.963  -4.245  34.839  0.00  0.00     0.037 C 
BRANCH  36  37
ATOM     37  C19 U10 U 311      72.153  -2.942  35.079  0.00  0.00    -0.087 C 
ATOM     38  C18 U10 U 311      72.688  -1.772  35.286  0.00  0.00    -0.024 C 
ATOM     39  C20 U10 U 311      70.688  -3.201  34.812  0.00  0.00     0.043 C 
BRANCH  38  40
ATOM     40  C17 U10 U 311      71.978  -0.465  35.224  0.00  0.00     0.031 C 
BRANCH  40  41
ATOM     41  C16 U10 U 311      71.923   0.158  36.605  0.00  0.00     0.037 C 
BRANCH  41  42
ATOM     42  C14 U10 U 311      70.804  -0.399  37.457  0.00  0.00    -0.087 C 
ATOM     43  C15 U10 U 311      69.569   0.483  37.494  0.00  0.00     0.043 C 
ATOM     44  C13 U10 U 311      70.931  -1.623  38.116  0.00  0.00    -0.024 C 
BRANCH  44  45
ATOM     45  C12 U10 U 311      69.917  -2.258  39.033  0.00  0.00     0.031 C 
BRANCH  45  46
ATOM     46  C11 U10 U 311      70.139  -2.519  40.521  0.00  0.00     0.037 C 
BRANCH  46  47
ATOM     47  C9  U10 U 311      70.494  -1.234  41.212  0.00  0.00    -0.087 C 
ATOM     48  C10 U10 U 311      71.910  -1.094  41.744  0.00  0.00     0.043 C 
ATOM     49  C8  U10 U 311      69.547  -0.231  41.343  0.00  0.00    -0.020 C 
BRANCH  49  50
ATOM     50  C7  U10 U 311      69.729   1.107  41.921  0.00  0.00     0.071 C 
BRANCH  50  51
ATOM     51  C6  U10 U 311      69.850   2.353  40.972  0.00  0.00     0.008 A 
ATOM     52  C5  U10 U 311      68.640   2.811  40.333  0.00  0.00     0.215 A 
ATOM     53  C4  U10 U 311      68.672   3.956  39.573  0.00  0.00     0.156 A 
ATOM     54  O5  U10 U 311      67.677   2.050  40.330  0.00  0.00    -0.285 OA
ATOM     55  C3  U10 U 311      69.841   4.579  39.350  0.00  0.00     0.156 A 
ATOM     56  C2  U10 U 311      71.010   4.158  39.839  0.00  0.00     0.214 A 
ATOM     57  O2  U10 U 311      72.085   4.702  39.504  0.00  0.00    -0.285 OA
ATOM     58  C1  U10 U 311      71.100   3.104  40.700  0.00  0.00     0.002 A 
ATOM     59  C1M U10 U 311      72.263   2.836  41.483  0.00  0.00     0.053 C 
BRANCH  53  60
ATOM     60  O4  U10 U 311      67.554   4.325  38.957  0.00  0.00    -0.350 OA
ATOM     61  C4M U10 U 311      66.913   5.428  39.601  0.00  0.00     0.210 C 
ENDBRANCH  53  60
BRANCH  55  62
ATOM     62  O3  U10 U 311      69.866   5.643  38.526  0.00  0.00    -0.350 OA
ATOM     63  C3M U10 U 311      70.037   6.907  39.089  0.00  0.00     0.210 C 
ENDBRANCH  55  62
ENDBRANCH  50  51
ENDBRANCH  49  50
ENDBRANCH  46  47
ENDBRANCH  45  46
ENDBRANCH  44  45
ENDBRANCH  41  42
ENDBRANCH  40  41
ENDBRANCH  38  40
ENDBRANCH  36  37
ENDBRANCH  35  36
ENDBRANCH   1  35
TORSDOF 31
ENDMDL
MODEL 10
REMARK VINA RESULT:     -11.0      2.191      6.121
REMARK  31 active torsions:
REMARK  status: ('A' for Active; 'I' for Inactive)
REMARK    1  A    between atoms: C3_5  and  O3_7 
REMARK    2  A    between atoms: C4_8  and  O4_10 
REMARK    3  A    between atoms: C6_13  and  C7_14 
REMARK    4  A    between atoms: C7_14  and  C8_15 
REMARK    5  A    between atoms: C9_16  and  C11_18 
REMARK    6  A    between atoms: C11_18  and  C12_19 
REMARK    7  A    between atoms: C12_19  and  C13_20 
REMARK    8  A    between atoms: C14_21  and  C16_23 
REMARK    9  A    between atoms: C16_23  and  C17_24 
REMARK   10  A    between atoms: C17_24  and  C18_25 
REMARK   11  A    between atoms: C19_26  and  C21_28 
REMARK   12  A    between atoms: C21_28  and  C22_29 
REMARK   13  A    between atoms: C22_29  and  C23_30 
REMARK   14  A    between atoms: C24_31  and  C26_33 
REMARK   15  A    between atoms: C26_33  and  C27_34 
REMARK   16  A    between atoms: C27_34  and  C28_35 
REMARK   17  A    between atoms: C29_36  and  C31_38 
REMARK   18  A    between atoms: C31_38  and  C32_39 
REMARK   19  A    between atoms: C32_39  and  C33_40 
REMARK   20  A    between atoms: C34_41  and  C36_43 
REMARK   21  A    between atoms: C36_43  and  C37_44 
REMARK   22  A    between atoms: C37_44  and  C38_45 
REMARK   23  A    between atoms: C39_46  and  C41_48 
REMARK   24  A    between atoms: C41_48  and  C42_49 
REMARK   25  A    between atoms: C42_49  and  C43_50 
REMARK   26  A    between atoms: C44_51  and  C46_53 
REMARK   27  A    between atoms: C46_53  and  C47_54 
REMARK   28  A    between atoms: C47_54  and  C48_55 
REMARK   29  A    between atoms: C49_56  and  C51_58 
REMARK   30  A    between atoms: C51_58  and  C52_59 
REMARK   31  A    between atoms: C52_59  and  C53_60 
ROOT
ATOM      1  C23 U10 U 311      73.344  -2.034  32.854  0.00  0.00    -0.024 C 
ATOM      2  C24 U10 U 311      73.732  -2.299  31.577  0.00  0.00    -0.087 C 
ATOM      3  C25 U10 U 311      72.853  -2.274  30.310  0.00  0.00     0.043 C 
ENDROOT
BRANCH   2   4
ATOM      4  C26 U10 U 311      75.121  -2.914  31.286  0.00  0.00     0.037 C 
BRANCH   4   5
ATOM      5  C27 U10 U 311      76.198  -2.063  30.479  0.00  0.00     0.031 C 
BRANCH   5   6
ATOM      6  C28 U10 U 311      75.766  -1.653  29.040  0.00  0.00    -0.024 C 
ATOM      7  C29 U10 U 311      76.356  -1.986  27.884  0.00  0.00    -0.087 C 
ATOM      8  C30 U10 U 311      77.634  -2.722  27.744  0.00  0.00     0.043 C 
BRANCH   7   9
ATOM      9  C31 U10 U 311      75.754  -1.673  26.570  0.00  0.00     0.037 C 
BRANCH   9  10
ATOM     10  C32 U10 U 311      75.214  -0.199  26.446  0.00  0.00     0.031 C 
BRANCH  10  11
ATOM     11  C33 U10 U 311      75.111   0.231  24.985  0.00  0.00    -0.024 C 
ATOM     12  C34 U10 U 311      76.088   0.310  24.070  0.00  0.00    -0.087 C 
ATOM     13  C35 U10 U 311      77.549  -0.044  24.232  0.00  0.00     0.043 C 
BRANCH  12  14
ATOM     14  C36 U10 U 311      75.886   0.926  22.714  0.00  0.00     0.037 C 
BRANCH  14  15
ATOM     15  C37 U10 U 311      74.504   0.675  22.137  0.00  0.00     0.031 C 
BRANCH  15  16
ATOM     16  C38 U10 U 311      74.436  -0.366  21.023  0.00  0.00    -0.024 C 
ATOM     17  C39 U10 U 311      74.048  -1.662  21.240  0.00  0.00    -0.087 C 
ATOM     18  C40 U10 U 311      73.617  -2.302  22.513  0.00  0.00     0.043 C 
BRANCH  17  19
ATOM     19  C41 U10 U 311      73.934  -2.641  20.109  0.00  0.00     0.037 C 
BRANCH  19  20
ATOM     20  C42 U10 U 311      72.744  -3.581  19.763  0.00  0.00     0.031 C 
BRANCH  20  21
ATOM     21  C43 U10 U 311      72.953  -4.669  18.776  0.00  0.00    -0.024 C 
ATOM     22  C44 U10 U 311      73.328  -5.936  19.038  0.00  0.00    -0.087 C 
ATOM     23  C45 U10 U 311      73.596  -6.516  20.360  0.00  0.00     0.043 C 
BRANCH  22  24
ATOM     24  C46 U10 U 311      73.505  -6.985  17.974  0.00  0.00     0.037 C 
BRANCH  24  25
ATOM     25  C47 U10 U 311      73.600  -8.488  18.357  0.00  0.00     0.031 C 
BRANCH  25  26
ATOM     26  C48 U10 U 311      73.867  -9.317  17.122  0.00  0.00    -0.024 C 
ATOM     27  C49 U10 U 311      74.374 -10.547  17.129  0.00  0.00    -0.087 C 
ATOM     28  C50 U10 U 311      74.766 -11.445  18.353  0.00  0.00     0.043 C 
BRANCH  27  29
ATOM     29  C51 U10 U 311      74.432 -11.382  15.924  0.00  0.00     0.037 C 
BRANCH  29  30
ATOM     30  C52 U10 U 311      74.400 -10.728  14.482  0.00  0.00     0.031 C 
BRANCH  30  31
ATOM     31  C53 U10 U 311      74.704 -11.758  13.415  0.00  0.00    -0.024 C 
ATOM     32  C54 U10 U 311      73.851 -12.649  12.895  0.00  0.00    -0.091 C 
ATOM     33  C56 U10 U 311      72.414 -12.895  13.214  0.00  0.00     0.042 C 
ATOM     34  C55 U10 U 311      74.287 -13.670  11.907  0.00  0.00     0.042 C 
ENDBRANCH  30  31
ENDBRANCH  29  30
ENDBRANCH  27  29
ENDBRANCH  25  26
ENDBRANCH  24  25
ENDBRANCH  22  24
ENDBRANCH  20  21
ENDBRANCH  19  20
ENDBRANCH  17  19
ENDBRANCH  15  16
ENDBRANCH  14  15
ENDBRANCH  12  14
ENDBRANCH  10  11
ENDBRANCH   9  10
ENDBRANCH   7   9
ENDBRANCH   5   6
ENDBRANCH   4   5
ENDBRANCH   2   4
BRANCH   1  35
ATOM     35  C22 U10 U 311      72.002  -1.343  33.099  0.00  0.00     0.031 C 
BRANCH  35  36
ATOM     36  C21 U10 U 311      72.070  -0.293  34.291  0.00  0.00     0.037 C 
BRANCH  36  37
ATOM     37  C19 U10 U 311      71.741  -0.728  35.746  0.00  0.00    -0.087 C 
ATOM     38  C18 U10 U 311      71.671   0.089  36.758  0.00  0.00    -0.024 C 
ATOM     39  C20 U10 U 311      71.301  -2.174  35.753  0.00  0.00     0.043 C 
BRANCH  38  40
ATOM     40  C17 U10 U 311      71.077  -0.220  38.088  0.00  0.00     0.031 C 
BRANCH  40  41
ATOM     41  C16 U10 U 311      72.027  -1.089  38.888  0.00  0.00     0.037 C 
BRANCH  41  42
ATOM     42  C14 U10 U 311      71.424  -1.579  40.186  0.00  0.00    -0.087 C 
ATOM     43  C15 U10 U 311      72.331  -1.392  41.389  0.00  0.00     0.043 C 
ATOM     44  C13 U10 U 311      70.142  -2.129  40.231  0.00  0.00    -0.024 C 
BRANCH  44  45
ATOM     45  C12 U10 U 311      69.452  -2.700  41.443  0.00  0.00     0.031 C 
BRANCH  45  46
ATOM     46  C11 U10 U 311      68.261  -2.052  42.146  0.00  0.00     0.037 C 
BRANCH  46  47
ATOM     47  C9  U10 U 311      67.708  -0.947  41.292  0.00  0.00    -0.087 C 
ATOM     48  C10 U10 U 311      66.489  -1.262  40.444  0.00  0.00     0.043 C 
ATOM     49  C8  U10 U 311      68.307   0.302  41.301  0.00  0.00    -0.020 C 
BRANCH  49  50
ATOM     50  C7  U10 U 311      67.871   1.513  40.592  0.00  0.00     0.071 C 
BRANCH  50  51
ATOM     51  C6  U10 U 311      68.854   2.731  40.458  0.00  0.00     0.008 A 
ATOM     52  C5  U10 U 311      68.303   3.965  39.951  0.00  0.00     0.215 A 
ATOM     53  C4  U10 U 311      69.093   5.088  39.908  0.00  0.00     0.156 A 
ATOM     54  O5  U10 U 311      67.210   3.912  39.393  0.00  0.00    -0.285 OA
ATOM     55  C3  U10 U 311      70.393   5.005  40.240  0.00  0.00     0.156 A 
ATOM     56  C2  U10 U 311      70.986   3.875  40.632  0.00  0.00     0.214 A 
ATOM     57  O2  U10 U 311      72.222   3.822  40.813  0.00  0.00    -0.285 OA
ATOM     58  C1  U10 U 311      70.290   2.718  40.827  0.00  0.00     0.002 A 
ATOM     59  C1M U10 U 311      70.819   1.604  41.545  0.00  0.00     0.053 C 
BRANCH  53  60
ATOM     60  O4  U10 U 311      68.573   6.196  39.391  0.00  0.00    -0.350 OA
ATOM     61  C4M U10 U 311      69.200   6.574  38.164  0.00  0.00     0.210 C 
ENDBRANCH  53  60
BRANCH  55  62
ATOM     62  O3  U10 U 311      71.173   6.093  40.100  0.00  0.00    -0.350 OA
ATOM     63  C3M U10 U 311      71.543   6.789  41.250  0.00  0.00     0.210 C 
ENDBRANCH  55  62
ENDBRANCH  50  51
ENDBRANCH  49  50
ENDBRANCH  46  47
ENDBRANCH  45  46
ENDBRANCH  44  45
ENDBRANCH  41  42
ENDBRANCH  40  41
ENDBRANCH  38  40
ENDBRANCH  36  37
ENDBRANCH  35  36
ENDBRANCH   1  35
TORSDOF 31
ENDMDL
