REMARK  7 active torsions:
REMARK  status: ('A' for Active; 'I' for Inactive)
REMARK    1  A    between atoms: N1_4  and  C3_9 
REMARK    2  A    between atoms: O1_5  and  C14_21 
REMARK    3  A    between atoms: O1_5  and  C15_22 
REMARK    4  A    between atoms: N2_7  and  C11_18 
REMARK    5  A    between atoms: C11_18  and  C12_19 
REMARK    6  A    between atoms: C12_19  and  C13_20 
REMARK    7  A    between atoms: C13_20  and  C14_21 
ROOT
HETATM    1  C11 9SC B 601      26.193  21.728   5.167  0.69 32.97     0.251 C 
ENDROOT
BRANCH   1   2
HETATM    2  N2  9SC B 601      26.180  20.409   5.022  0.69 32.89     0.141 N 
HETATM    3  C8  9SC B 601      26.945  20.050   3.970  0.69 32.62     0.274 C 
HETATM    4  C7  9SC B 601      27.173  18.568   3.985  0.69 32.12     0.137 C 
HETATM    5  N1  9SC B 601      25.909  17.890   4.171  0.69 32.72    -0.344 N 
HETATM    6  C10 9SC B 601      24.865  18.511   4.978  0.69 32.83     0.137 C 
HETATM    7  C9  9SC B 601      24.952  20.000   4.859  0.69 32.95     0.274 C 
BRANCH   5   8
HETATM    8  C3  9SC B 601      25.664  16.535   3.545  0.69 33.61     0.068 A 
HETATM    9  C2  9SC B 601      25.479  16.409   2.221  0.69 34.54     0.084 A 
HETATM   10 CL2  9SC B 601      25.522  17.833   1.154  0.69 36.63    -0.080 Cl
HETATM   11  C1  9SC B 601      25.234  15.042   1.621  0.69 33.25     0.070 A 
HETATM   12 CL1  9SC B 601      24.991  14.875  -0.139  0.69 33.56    -0.081 Cl
HETATM   13  C6  9SC B 601      25.198  13.955   2.407  0.69 33.15     0.012 A 
HETATM   14  C5  9SC B 601      25.406  14.099   3.921  0.69 33.54     0.002 A 
HETATM   15  C4  9SC B 601      25.619  15.286   4.445  0.69 33.82     0.018 A 
ENDBRANCH   5   8
ENDBRANCH   1   2
BRANCH   1  16
HETATM   16  C12 9SC B 601      26.050  22.063   6.709  0.69 33.14     0.038 C 
BRANCH  16  17
HETATM   17  C13 9SC B 601      26.108  23.597   6.948  0.69 32.02     0.035 C 
BRANCH  17  18
HETATM   18  C14 9SC B 601      25.326  23.909   8.237  0.69 30.98     0.149 C 
BRANCH  18  19
HETATM   19  O1  9SC B 601      26.232  24.342   9.253  0.69 31.49    -0.331 OA
BRANCH  19  20
HETATM   20  C15 9SC B 601      25.608  24.892  10.398  0.69 31.02     0.096 A 
HETATM   21  C16 9SC B 601      26.268  26.018  11.133  0.69 30.63     0.024 A 
HETATM   22  C17 9SC B 601      25.669  26.561  12.251  0.69 30.77    -0.001 A 
HETATM   23  C18 9SC B 601      24.322  26.013  12.745  0.69 30.32    -0.004 A 
HETATM   24  C19 9SC B 601      23.748  25.037  12.104  0.69 30.31     0.081 A 
HETATM   25  C21 9SC B 601      23.671  26.672  14.033  0.69 30.44     0.036 C 
HETATM   26  N3  9SC B 601      22.469  24.483  12.536  0.69 30.27    -0.224 NA
HETATM   27  C20 9SC B 601      24.442  24.415  10.820  0.69 30.88     0.043 A 
HETATM   28  C23 9SC B 601      21.965  24.788  13.876  0.69 29.68     0.190 C 
HETATM   29  O2A 9SC B 601      20.776  24.282  14.299  0.69 29.13    -0.174 OA
HETATM   30  C22 9SC B 601      22.807  25.703  14.808  0.69 30.20     0.079 C 
ENDBRANCH  19  20
ENDBRANCH  18  19
ENDBRANCH  17  18
ENDBRANCH  16  17
ENDBRANCH   1  16
TORSDOF 7
