REMARK  12 active torsions:
REMARK  status: ('A' for Active; 'I' for Inactive)
REMARK    1  A    between atoms: O_2  and  C_3 
REMARK    2  A    between atoms: C_4  and  O_5 
REMARK    3  A    between atoms: C_8  and  C_9 
REMARK    4  A    between atoms: C_9  and  C_10 
REMARK    5  A    between atoms: C_11  and  C_13 
REMARK    6  A    between atoms: C_13  and  C_14 
REMARK    7  A    between atoms: C_15  and  C_16 
REMARK    8  A    between atoms: C_18  and  C_19 
REMARK    9  A    between atoms: C_19  and  C_20 
REMARK   10  A    between atoms: C_20  and  O_21 
REMARK   11  A    between atoms: C_20  and  C_22 
REMARK   12  A    between atoms: C_28  and  O_29 
ROOT
ATOM      1  C           0       2.524  -2.613   0.195  0.00  0.00    -0.018 C 
ATOM      2  C           0       1.423  -3.097  -0.325  0.00  0.00    -0.084 C 
ATOM      3  C           0       1.354  -3.397  -1.800  0.00  0.00     0.043 C 
ENDROOT
BRANCH   2   4
ATOM      4  C           0       0.225  -3.353   0.553  0.00  0.00     0.060 C 
BRANCH   4   5
ATOM      5  C           0      -0.700  -2.164   0.500  0.00  0.00    -0.022 C 
ATOM      6  C           0      -1.974  -2.328   0.162  0.00  0.00     0.003 C 
BRANCH   6   7
ATOM      7  C           0      -2.877  -1.168   0.110  0.00  0.00    -0.066 C 
ATOM      8  C           0      -2.356   0.207   0.442  0.00  0.00     0.048 C 
ATOM      9  C           0      -4.151  -1.332  -0.228  0.00  0.00    -0.013 C 
BRANCH   9  10
ATOM     10  C           0      -5.030  -0.129  -0.458  0.00  0.00     0.037 C 
ATOM     11  C           0      -5.725  -0.257  -1.815  0.00  0.00     0.017 C 
BRANCH  10  12
ATOM     12  C           0      -6.084  -0.050   0.649  0.00  0.00     0.153 C 
BRANCH  12  13
ATOM     13  O           0      -5.436   0.069   1.917  0.00  0.00    -0.391 OA
ATOM     14  H           0      -4.909   0.879   1.886  0.00  0.00     0.210 HD
ENDBRANCH  12  13
BRANCH  12  15
ATOM     15  C           0      -6.964   1.152   0.420  0.00  0.00    -0.059 C 
ATOM     16  C           0      -6.380   2.539   0.504  0.00  0.00     0.046 C 
ATOM     17  C           0      -8.235   0.992   0.147  0.00  0.00    -0.026 C 
ATOM     18  C           0      -9.114   2.194  -0.082  0.00  0.00     0.036 C 
ENDBRANCH  12  15
ENDBRANCH  10  12
ENDBRANCH   9  10
ENDBRANCH   6   7
ENDBRANCH   4   5
ENDBRANCH   2   4
BRANCH   1  19
ATOM     19  C           0       3.653  -2.179  -0.704  0.00  0.00     0.087 C 
BRANCH  19  20
ATOM     20  C           0       4.068  -0.775  -0.346  0.00  0.00     0.049 A 
ATOM     21  C           0       5.049  -0.577   0.603  0.00  0.00    -0.001 A 
ATOM     22  C           0       5.428   0.723   0.929  0.00  0.00     0.111 A 
ATOM     23  C           0       5.703  -1.754   1.279  0.00  0.00     0.053 C 
ATOM     24  C           0       4.795   1.780   0.278  0.00  0.00     0.155 A 
ATOM     25  C           0       3.812   1.499  -0.664  0.00  0.00     0.201 A 
ATOM     26  N           0       3.487   0.248  -0.947  0.00  0.00    -0.226 NA
BRANCH  22  27
ATOM     27  O           0       6.390   0.955   1.860  0.00  0.00    -0.357 OA
ATOM     28  H           0       5.942   1.024   2.714  0.00  0.00     0.217 HD
ENDBRANCH  22  27
BRANCH  24  29
ATOM     29  O           0       5.131   3.068   0.563  0.00  0.00    -0.349 OA
ATOM     30  C           0       6.188   3.427  -0.329  0.00  0.00     0.210 C 
ENDBRANCH  24  29
BRANCH  25  31
ATOM     31  O           0       3.186   2.518  -1.307  0.00  0.00    -0.337 OA
ATOM     32  C           0       2.250   1.924  -2.209  0.00  0.00     0.211 C 
ENDBRANCH  25  31
ENDBRANCH  19  20
ENDBRANCH   1  19
TORSDOF 12
