REMARK  7 active torsions:
REMARK  status: ('A' for Active; 'I' for Inactive)
REMARK    1  A    between atoms: N_3  and  C_23 
REMARK    2  A    between atoms: N_6  and  C_7 
REMARK    3  A    between atoms: C_7  and  C_8 
REMARK    4  A    between atoms: C_8  and  C_9 
REMARK    5  A    between atoms: C_9  and  C_10 
REMARK    6  A    between atoms: C_10  and  O_11 
REMARK    7  A    between atoms: O_11  and  C_12 
ROOT
ATOM      1  C           0      -0.624  -1.650   0.795  0.00  0.00     0.272 C 
ENDROOT
BRANCH   1   2
ATOM      2  N           0      -1.834  -0.843   1.005  0.00  0.00     0.090 N 
ATOM      3  C           0      -2.178  -0.253  -0.295  0.00  0.00     0.287 C 
ATOM      4  C           0      -3.501   0.505  -0.181  0.00  0.00     0.126 C 
ATOM      5  N           0      -4.578  -0.431   0.160  0.00  0.00    -0.279 NA
ATOM      6  C           0      -4.235  -1.022   1.459  0.00  0.00     0.126 C 
ATOM      7  C           0      -2.912  -1.780   1.346  0.00  0.00     0.287 C 
BRANCH   5   8
ATOM      8  C           0      -5.728   0.335   0.359  0.00  0.00     0.022 A 
ATOM      9  C           0      -5.745   1.297   1.345  0.00  0.00     0.024 A 
ATOM     10  C           0      -6.869   2.081   1.566  0.00  0.00     0.003 A 
ATOM     11  C           0      -7.997   1.889   0.794  0.00  0.00     0.020 A 
ATOM     12  C           0      -7.996   0.926  -0.194  0.00  0.00     0.016 A 
ATOM     13  C           0      -6.872   0.114  -0.452  0.00  0.00     0.003 A 
ATOM     14  S           0      -9.194   0.368  -1.378  0.00  0.00    -0.101 SA
ATOM     15  C           0      -7.052  -0.847  -1.530  0.00  0.00     0.021 A 
ATOM     16  C           0      -8.224  -0.895  -2.179  0.00  0.00     0.051 A 
ENDBRANCH   5   8
ENDBRANCH   1   2
BRANCH   1  17
ATOM     17  C           0       0.591  -0.728   0.681  0.00  0.00     0.032 C 
BRANCH  17  18
ATOM     18  C           0       1.851  -1.568   0.463  0.00  0.00     0.028 C 
BRANCH  18  19
ATOM     19  C           0       3.066  -0.645   0.349  0.00  0.00     0.175 C 
BRANCH  19  20
ATOM     20  O           0       4.242  -1.430   0.145  0.00  0.00    -0.351 OA
BRANCH  20  21
ATOM     21  C           0       5.282  -0.562   0.052  0.00  0.00     0.070 A 
ATOM     22  C           0       5.049   0.809   0.155  0.00  0.00     0.038 A 
ATOM     23  C           0       6.082   1.696   0.069  0.00  0.00     0.016 A 
ATOM     24  C           0       7.386   1.227  -0.135  0.00  0.00    -0.009 A 
ATOM     25  C           0       7.627  -0.157  -0.245  0.00  0.00     0.048 A 
ATOM     26  C           0       8.513   2.153  -0.237  0.00  0.00     0.019 A 
ATOM     27  C           0       6.563  -1.045  -0.149  0.00  0.00     0.067 A 
ATOM     28  N           0       8.914  -0.610  -0.445  0.00  0.00    -0.323 N 
ATOM     29  C           0       9.943   0.249  -0.537  0.00  0.00     0.245 A 
ATOM     30  H           0       9.078  -1.563  -0.520  0.00  0.00     0.169 HD
ATOM     31  C           0       9.755   1.643  -0.434  0.00  0.00     0.075 A 
ATOM     32  O           0      11.068  -0.187  -0.714  0.00  0.00    -0.268 OA
ENDBRANCH  20  21
ENDBRANCH  19  20
ENDBRANCH  18  19
ENDBRANCH  17  18
ENDBRANCH   1  17
TORSDOF 7
