REMARK  5 active torsions:
REMARK  status: ('A' for Active; 'I' for Inactive)
REMARK       I    between atoms: N_2  and  C_4 
REMARK       I    between atoms: C_4  and  N_6 
REMARK    1  A    between atoms: N_6  and  C_7 
REMARK    2  A    between atoms: C_10  and  C_13 
REMARK    3  A    between atoms: C_13  and  C_14 
REMARK    4  A    between atoms: C_14  and  N_15 
REMARK    5  A    between atoms: N_18  and  C_21 
ROOT
ATOM      1  C           0       0.565   0.340   0.018  0.00  0.00     0.273 C 
ENDROOT
BRANCH   1   2
ATOM      2  C           0       1.459  -0.900   0.080  0.00  0.00     0.034 C 
BRANCH   2   3
ATOM      3  C           0       2.869  -0.492   0.512  0.00  0.00    -0.013 C 
ATOM      4  C           0       3.729  -1.744   0.695  0.00  0.00     0.007 C 
ATOM      5  C           0       5.139  -1.336   1.127  0.00  0.00     0.026 C 
ATOM      6  C           0       5.762  -0.441   0.055  0.00  0.00     0.086 C 
ATOM      7  C           0       4.902   0.812  -0.127  0.00  0.00     0.026 C 
ATOM      8  C           0       3.492   0.403  -0.560  0.00  0.00     0.007 C 
BRANCH   6   9
ATOM      9  N           0       7.112  -0.050   0.469  0.00  0.00    -0.338 N 
ATOM     10  C           0       8.030   0.289  -0.458  0.00  0.00     0.317 C 
ATOM     11  N           0       9.301   0.541  -0.087  0.00  0.00    -0.343 N 
ATOM     12  O           0       7.711   0.366  -1.629  0.00  0.00    -0.247 OA
ATOM     13  C           0      10.268   1.030  -1.072  0.00  0.00     0.154 C 
ATOM     14  C           0       9.715   0.326   1.302  0.00  0.00     0.154 C 
ATOM     15  H           0       7.345  -0.035   1.411  0.00  0.00     0.164 HD
ENDBRANCH   6   9
ENDBRANCH   2   3
ENDBRANCH   1   2
BRANCH   1  16
ATOM     16  N           0      -0.788  -0.052  -0.397  0.00  0.00     0.090 N 
ATOM     17  C           0      -1.243  -1.073   0.555  0.00  0.00     0.287 C 
ATOM     18  C           0      -2.696  -1.442   0.257  0.00  0.00     0.126 C 
ATOM     19  N           0      -3.554  -0.267   0.451  0.00  0.00    -0.279 NA
ATOM     20  C           0      -3.099   0.754  -0.501  0.00  0.00     0.126 C 
ATOM     21  C           0      -1.646   1.124  -0.204  0.00  0.00     0.287 C 
BRANCH  19  22
ATOM     22  C           0      -4.842  -0.639   0.056  0.00  0.00     0.034 A 
ATOM     23  C           0      -5.078  -1.919  -0.429  0.00  0.00     0.025 A 
ATOM     24  C           0      -6.352  -2.287  -0.815  0.00  0.00     0.004 A 
ATOM     25  C           0      -7.391  -1.379  -0.729  0.00  0.00     0.026 A 
ATOM     26  C           0      -7.160  -0.101  -0.251  0.00  0.00     0.057 A 
ATOM     27  C           0      -5.887   0.272   0.142  0.00  0.00     0.077 A 
ATOM     28 Cl           0      -8.469   1.035  -0.144  0.00  0.00    -0.082 Cl
ATOM     29 Cl           0      -5.597   1.875   0.741  0.00  0.00    -0.081 Cl
ENDBRANCH  19  22
ENDBRANCH   1  16
TORSDOF 5
