REMARK  6 active torsions:
REMARK  status: ('A' for Active; 'I' for Inactive)
REMARK       I    between atoms: N_1  and  C_2 
REMARK    1  A    between atoms: C_2  and  C_5 
REMARK    2  A    between atoms: C_6  and  N_8 
REMARK    3  A    between atoms: N_13  and  C_14 
REMARK    4  A    between atoms: C_14  and  C_15 
REMARK    5  A    between atoms: C_20  and  C_23 
REMARK    6  A    between atoms: C_23  and  C_24 
ROOT
HETATM    1  C   LIG     1       9.203  -7.505   0.570  1.00  0.00    -0.035 A 
HETATM    2  C   LIG     1      10.404  -7.146   1.186  1.00  0.00     0.033 A 
HETATM    3  C   LIG     1       8.487  -6.486  -0.084  1.00  0.00     0.033 A 
HETATM    4  C   LIG     1      10.882  -5.818   1.134  1.00  0.00     0.050 A 
HETATM    5  C   LIG     1       8.981  -5.170  -0.184  1.00  0.00     0.050 A 
HETATM    6  C   LIG     1      10.169  -4.809   0.453  1.00  0.00     0.058 A 
HETATM    7 CL   LIG     1      12.376  -5.505   1.954  1.00  0.00    -0.083 Cl
HETATM    8 CL   LIG     1       8.080  -4.107  -1.211  1.00  0.00    -0.083 Cl
ENDROOT
BRANCH   1   9
HETATM    9  C   LIG     1       8.571  -8.882   0.668  1.00  0.00     0.187 C 
BRANCH   9  10
HETATM   10  N   LIG     1       9.365 -10.082   0.392  1.00  0.00    -0.253 N 
HETATM   11  C   LIG     1       8.869 -11.373   0.279  1.00  0.00     0.151 A 
HETATM   12  C   LIG     1      10.012 -12.148   0.121  1.00  0.00     0.186 A 
HETATM   13  N   LIG     1      11.108 -11.317   0.092  1.00  0.00    -0.150 NA
HETATM   14  N   LIG     1      10.700 -10.066   0.262  1.00  0.00     0.007 NA
BRANCH  11  15
HETATM   15  N   LIG     1       7.544 -11.684   0.318  1.00  0.00    -0.382 N 
HETATM   16  H   LIG     1       7.248 -12.546  -0.146  1.00  0.00     0.157 HD
HETATM   17  H   LIG     1       6.830 -10.968   0.201  1.00  0.00     0.157 HD
ENDBRANCH  11  15
BRANCH  12  18
HETATM   18  C   LIG     1      10.127 -13.598  -0.003  1.00  0.00     0.273 C 
HETATM   19  N   LIG     1       9.044 -14.331   0.410  1.00  0.00    -0.365 N 
HETATM   20  H   LIG     1       8.377 -13.906   1.046  1.00  0.00     0.159 HD
HETATM   21  H   LIG     1       9.195 -15.328   0.477  1.00  0.00     0.159 HD
HETATM   22  O   LIG     1      11.127 -14.180  -0.413  1.00  0.00    -0.266 OA
ENDBRANCH  12  18
ENDBRANCH   9  10
ENDBRANCH   1   9
BRANCH   6  23
HETATM   23  C   LIG     1      10.826  -3.504   0.218  1.00  0.00     0.195 C 
HETATM   24  O   LIG     1      11.887  -3.555  -0.401  1.00  0.00    -0.287 OA
BRANCH  23  25
HETATM   25  C   LIG     1      10.325  -2.152   0.626  1.00  0.00     0.015 A 
HETATM   26  C   LIG     1       9.008  -1.852   0.984  1.00  0.00     0.017 A 
HETATM   27  C   LIG     1       8.597  -0.515   1.109  1.00  0.00     0.025 A 
HETATM   28  C   LIG     1       9.515   0.525   0.950  1.00  0.00     0.034 A 
HETATM   29  C   LIG     1      10.850   0.238   0.700  1.00  0.00     0.025 A 
HETATM   30 CL   LIG     1       8.992   2.161   1.043  1.00  0.00    -0.084 Cl
HETATM   31  C   LIG     1      11.248  -1.090   0.535  1.00  0.00     0.017 A 
ENDBRANCH  23  25
ENDBRANCH   6  23
TORSDOF 6
