REMARK  10 active torsions:
REMARK  status: ('A' for Active; 'I' for Inactive)
REMARK    1  A    between atoms: C21_65925  and  C15_65939 
REMARK    2  A    between atoms: C24_65928  and  O2_65952 
REMARK    3  A    between atoms: C25_65929  and  O3_65953 
REMARK    4  A    between atoms: C11_65935  and  C18_65942 
REMARK    5  A    between atoms: C12_65936  and  C13_65937 
REMARK    6  A    between atoms: C13_65937  and  C20_65944 
REMARK    7  A    between atoms: C15_65939  and  C17_65941 
REMARK    8  A    between atoms: C6_65946  and  C7_65947 
REMARK    9  A    between atoms: C6_65946  and  C8_65948 
REMARK   10  A    between atoms: C7_65947  and  C9_65949 
ROOT
HETATM    1  C26 HQH D 501     227.525 231.917 284.586  1.00 20.76     0.026 C 
HETATM    2  C17 HQH D 501     227.166 231.482 285.969  1.00 20.76    -0.043 C 
HETATM    3  C20 HQH D 501     227.666 230.372 286.499  1.00 20.76    -0.028 C 
ENDROOT
BRANCH   2   4
HETATM    4  C15 HQH D 501     226.201 232.439 286.645  1.00 20.76     0.048 C 
BRANCH   4   5
HETATM    5  C21 HQH D 501     225.605 232.056 287.972  1.00 20.76    -0.022 C 
HETATM    6  C18 HQH D 501     224.325 232.101 288.326  1.00 20.76    -0.009 C 
BRANCH   6   7
HETATM    7  C11 HQH D 501     223.111 232.122 287.487  1.00 20.76    -0.026 C 
HETATM    8  C22 HQH D 501     223.090 231.316 286.262  1.00 20.76     0.031 C 
HETATM    9  C8  HQH D 501     222.029 232.845 287.909  1.00 20.76    -0.028 C 
BRANCH   9  10
HETATM   10  C6  HQH D 501     220.682 233.086 287.272  1.00 20.76     0.056 C 
HETATM   11  C10 HQH D 501     219.595 232.565 288.220  1.00 20.76     0.008 C 
BRANCH  10  12
HETATM   12  C7  HQH D 501     220.472 234.562 286.904  1.00 20.76     0.174 C 
HETATM   13  O1  HQH D 501     221.277 234.887 285.786  1.00 20.76    -0.219 OA
BRANCH  12  14
HETATM   14  C9  HQH D 501     219.043 234.958 286.589  1.00 20.76    -0.018 C 
HETATM   15  C14 HQH D 501     218.702 234.823 285.136  1.00 20.76     0.029 C 
HETATM   16  C16 HQH D 501     218.216 235.404 287.532  1.00 20.76    -0.032 C 
HETATM   17  C27 HQH D 501     216.804 235.866 287.334  1.00 20.76     0.030 C 
ENDBRANCH  12  14
ENDBRANCH  10  12
ENDBRANCH   9  10
ENDBRANCH   6   7
ENDBRANCH   4   5
ENDBRANCH   2   4
BRANCH   3  18
HETATM   18  C13 HQH D 501     228.698 229.430 285.932  1.00 20.76     0.071 C 
BRANCH  18  19
HETATM   19  C12 HQH D 501     228.259 228.003 285.713  1.00 20.76     0.065 A 
HETATM   20  C19 HQH D 501     229.039 226.877 286.043  1.00 20.76     0.033 A 
HETATM   21  C23 HQH D 501     228.511 225.579 285.784  1.00 20.76     0.218 A 
HETATM   22  C28 HQH D 501     230.406 226.957 286.673  1.00 20.76     0.036 C 
HETATM   23  O4  HQH D 501     229.201 224.571 286.074  1.00 20.76    -0.285 OA
HETATM   24  C25 HQH D 501     227.213 225.436 285.179  1.00 20.76     0.174 A 
HETATM   25  C24 HQH D 501     226.484 226.587 284.871  1.00 20.76     0.204 A 
HETATM   26  N5  HQH D 501     227.021 227.818 285.143  1.00 20.76    -0.225 NA
BRANCH  24  27
HETATM   27  O3  HQH D 501     226.564 224.266 284.879  1.00 20.76    -0.322 OA
HETATM   28  C30 HQH D 501     226.878 223.038 285.529  1.00 20.76     0.182 C 
ENDBRANCH  24  27
BRANCH  25  29
HETATM   29  O2  HQH D 501     225.266 226.413 284.316  1.00 20.76    -0.310 OA
HETATM   30  C29 HQH D 501     224.352 227.477 283.982  1.00 20.76     0.183 C 
ENDBRANCH  25  29
ENDBRANCH  18  19
ENDBRANCH   3  18
TORSDOF 10
