REMARK  8 active torsions:
REMARK  status: ('A' for Active; 'I' for Inactive)
REMARK    1  A    between atoms: CAA_1  and  C5_17 
REMARK    2  A    between atoms: CAB_2  and  C7_20 
REMARK    3  A    between atoms: C5'_4  and  O5'_5 
REMARK    4  A    between atoms: O5'_5  and  C27_35 
REMARK    5  A    between atoms: C2'_8  and  C1'_9 
REMARK    6  A    between atoms: C1'_9  and  N9_22 
REMARK    7  A    between atoms: N1_11  and  C2_13 
REMARK    8  A    between atoms: S1_12  and  C23_31 
ROOT
HETATM    1  C4  T2Q H 403     222.117 253.290 298.608  1.00 47.19     0.081 A 
HETATM    2  O4  T2Q H 403     223.476 249.956 297.623  1.00 47.19    -0.171 OA
HETATM    3  C5  T2Q H 403     222.519 254.090 297.501  1.00 47.19     0.061 A 
HETATM    4  C8  T2Q H 403     223.158 251.316 297.589  1.00 47.19     0.195 A 
HETATM    5  N9  T2Q H 403     222.449 251.894 298.639  1.00 47.19    -0.301 N 
HETATM    6  C12 T2Q H 403     223.573 252.149 296.441  1.00 47.19     0.046 A 
HETATM    7  C13 T2Q H 403     223.250 253.504 296.413  1.00 47.19     0.009 A 
ENDROOT
BRANCH   5   8
HETATM    8  C1' T2Q H 403     222.032 251.099 299.770  1.00 47.19     0.135 C 
BRANCH   8   9
HETATM    9  C2' T2Q H 403     220.845 250.234 299.367  1.00 47.19     0.002 A 
HETATM   10  C16 T2Q H 403     219.657 250.824 298.987  1.00 47.19    -0.002 A 
HETATM   11  C17 T2Q H 403     218.582 250.035 298.623  1.00 47.19     0.001 A 
HETATM   12  C18 T2Q H 403     218.702 248.659 298.642  1.00 47.19     0.017 A 
HETATM   13  C2  T2Q H 403     219.891 248.068 299.018  1.00 47.19     0.056 A 
HETATM   14  C20 T2Q H 403     220.964 248.860 299.383  1.00 47.19     0.015 A 
BRANCH  13  15
HETATM   15  N1  T2Q H 403     220.012 246.624 299.042  1.00 47.19    -0.348 N 
HETATM   16  C21 T2Q H 403     219.561 245.836 297.929  1.00 47.19     0.102 C 
HETATM   17  C22 T2Q H 403     219.244 244.448 298.417  1.00 47.19     0.040 C 
HETATM   18  C23 T2Q H 403     220.512 243.752 298.872  1.00 47.19     0.112 C 
HETATM   19  C24 T2Q H 403     221.329 244.666 299.800  1.00 47.19     0.040 C 
HETATM   20  C25 T2Q H 403     220.584 245.954 300.198  1.00 47.19     0.102 C 
BRANCH  18  21
HETATM   21  S1  T2Q H 403     220.067 242.247 299.769  1.00 47.19     0.170 S 
HETATM   22  O3' T2Q H 403     218.854 241.642 299.220  1.00 47.19    -0.226 OA
HETATM   23  C26 T2Q H 403     221.462 241.090 299.742  1.00 47.19     0.140 C 
HETATM   24  OP1 T2Q H 403     219.643 242.553 301.134  1.00 47.19    -0.226 OA
ENDBRANCH  18  21
ENDBRANCH  13  15
ENDBRANCH   8   9
ENDBRANCH   5   8
BRANCH   3  25
HETATM   25  CAA T2Q H 403     222.158 255.568 297.490  1.00 47.19     0.210 A 
HETATM   26  N6  T2Q H 403     221.162 256.119 298.183  1.00 47.19    -0.199 NA
HETATM   27  C7  T2Q H 403     221.154 257.459 297.917  1.00 47.19     0.191 A 
HETATM   28  NAA T2Q H 403     222.146 257.722 297.062  1.00 47.19    -0.105 NA
HETATM   29  OP3 T2Q H 403     222.781 256.549 296.788  1.00 47.19    -0.190 OA
BRANCH  27  30
HETATM   30  CAB T2Q H 403     220.168 258.460 298.506  1.00 47.19     0.038 A 
HETATM   31  C1  T2Q H 403     220.095 259.753 298.019  1.00 47.19     0.005 A 
HETATM   32  C6  T2Q H 403     219.188 260.644 298.567  1.00 47.19     0.025 A 
HETATM   33  C5' T2Q H 403     218.357 260.242 299.601  1.00 47.19     0.102 A 
HETATM   34  C4' T2Q H 403     218.431 258.946 300.082  1.00 47.19     0.025 A 
HETATM   35  C3  T2Q H 403     219.337 258.055 299.534  1.00 47.19     0.005 A 
BRANCH  33  36
HETATM   36  O5' T2Q H 403     217.434 261.136 300.156  1.00 47.19    -0.253 OA
BRANCH  36  37
HETATM   37  C27 T2Q H 403     217.962 262.355 300.588  1.00 47.19     0.530 C 
HETATM   38  F1  T2Q H 403     217.150 262.874 301.554  1.00 47.19    -0.144 F 
HETATM   39  F2  T2Q H 403     218.024 263.222 299.537  1.00 47.19    -0.144 F 
HETATM   40  F3  T2Q H 403     219.210 262.164 301.104  1.00 47.19    -0.144 F 
ENDBRANCH  36  37
ENDBRANCH  33  36
ENDBRANCH  27  30
ENDBRANCH   3  25
TORSDOF 8
