REMARK  8 active torsions:
REMARK  status: ('A' for Active; 'I' for Inactive)
REMARK    1  A    between atoms: CAA_1  and  C5_17 
REMARK    2  A    between atoms: CAB_2  and  C7_20 
REMARK    3  A    between atoms: C5'_4  and  O5'_5 
REMARK    4  A    between atoms: O5'_5  and  C27_35 
REMARK    5  A    between atoms: C2'_8  and  C1'_9 
REMARK    6  A    between atoms: C1'_9  and  N9_22 
REMARK    7  A    between atoms: N1_11  and  C2_13 
REMARK    8  A    between atoms: S1_12  and  C23_31 
ROOT
HETATM    1  C4  T2Q H 403     216.346 247.922 286.786  1.00 47.19     0.081 A 
HETATM    2  O4  T2Q H 403     217.787 244.606 285.857  1.00 47.19    -0.171 OA
HETATM    3  C5  T2Q H 403     216.790 248.730 285.702  1.00 47.19     0.061 A 
HETATM    4  C8  T2Q H 403     217.456 245.963 285.812  1.00 47.19     0.195 A 
HETATM    5  N9  T2Q H 403     216.692 246.529 286.829  1.00 47.19    -0.301 N 
HETATM    6  C12 T2Q H 403     217.915 246.804 284.687  1.00 47.19     0.046 A 
HETATM    7  C13 T2Q H 403     217.578 248.155 284.648  1.00 47.19     0.009 A 
ENDROOT
BRANCH   5   8
HETATM    8  C1' T2Q H 403     216.231 245.726 287.937  1.00 47.19     0.135 C 
BRANCH   8   9
HETATM    9  C2' T2Q H 403     215.074 244.849 287.476  1.00 47.19     0.002 A 
HETATM   10  C16 T2Q H 403     213.899 245.427 287.043  1.00 47.19    -0.002 A 
HETATM   11  C17 T2Q H 403     212.851 244.627 286.626  1.00 47.19     0.001 A 
HETATM   12  C18 T2Q H 403     212.986 243.253 286.647  1.00 47.19     0.017 A 
HETATM   13  C2  T2Q H 403     214.162 242.674 287.077  1.00 47.19     0.056 A 
HETATM   14  C20 T2Q H 403     215.208 243.476 287.494  1.00 47.19     0.015 A 
BRANCH  13  15
HETATM   15  N1  T2Q H 403     214.298 241.231 287.103  1.00 47.19    -0.348 N 
HETATM   16  C21 T2Q H 403     213.909 240.442 285.967  1.00 47.19     0.102 C 
HETATM   17  C22 T2Q H 403     213.585 239.049 286.436  1.00 47.19     0.040 C 
HETATM   18  C23 T2Q H 403     214.838 238.365 286.948  1.00 47.19     0.112 C 
HETATM   19  C24 T2Q H 403     215.600 239.285 287.916  1.00 47.19     0.040 C 
HETATM   20  C25 T2Q H 403     214.823 240.564 288.282  1.00 47.19     0.102 C 
BRANCH  18  21
HETATM   21  S1  T2Q H 403     214.369 236.853 287.819  1.00 47.19     0.170 S 
HETATM   22  O3' T2Q H 403     213.190 236.236 287.212  1.00 47.19    -0.226 OA
HETATM   23  C26 T2Q H 403     215.777 235.711 287.855  1.00 47.19     0.140 C 
HETATM   24  OP1 T2Q H 403     213.878 237.149 289.164  1.00 47.19    -0.226 OA
ENDBRANCH  18  21
ENDBRANCH  13  15
ENDBRANCH   8   9
ENDBRANCH   5   8
BRANCH   3  25
HETATM   25  CAA T2Q H 403     216.414 250.204 285.678  1.00 47.19     0.210 A 
HETATM   26  N6  T2Q H 403     215.380 250.741 286.325  1.00 47.19    -0.199 NA
HETATM   27  C7  T2Q H 403     215.369 252.082 286.062  1.00 47.19     0.191 A 
HETATM   28  NAA T2Q H 403     216.397 252.359 285.256  1.00 47.19    -0.105 NA
HETATM   29  OP3 T2Q H 403     217.058 251.194 285.009  1.00 47.19    -0.190 OA
BRANCH  27  30
HETATM   30  CAB T2Q H 403     214.345 253.070 286.607  1.00 47.19     0.038 A 
HETATM   31  C1  T2Q H 403     214.281 254.363 286.121  1.00 47.19     0.005 A 
HETATM   32  C6  T2Q H 403     213.339 255.242 286.628  1.00 47.19     0.025 A 
HETATM   33  C5' T2Q H 403     212.465 254.828 287.621  1.00 47.19     0.102 A 
HETATM   34  C4' T2Q H 403     212.531 253.531 288.101  1.00 47.19     0.025 A 
HETATM   35  C3  T2Q H 403     213.472 252.652 287.594  1.00 47.19     0.005 A 
BRANCH  33  36
HETATM   36  O5' T2Q H 403     211.507 255.709 288.134  1.00 47.19    -0.253 OA
BRANCH  36  37
HETATM   37  C27 T2Q H 403     212.000 256.933 288.594  1.00 47.19     0.530 C 
HETATM   38  F1  T2Q H 403     211.137 257.440 289.522  1.00 47.19    -0.144 F 
HETATM   39  F2  T2Q H 403     212.101 257.804 287.549  1.00 47.19    -0.144 F 
HETATM   40  F3  T2Q H 403     213.224 256.754 289.168  1.00 47.19    -0.144 F 
ENDBRANCH  36  37
ENDBRANCH  33  36
ENDBRANCH  27  30
ENDBRANCH   3  25
TORSDOF 8
