MODEL 1
REMARK VINA RESULT:     -10.3      0.000      0.000
REMARK  7 active torsions:
REMARK  status: ('A' for Active; 'I' for Inactive)
REMARK    1  A    between atoms: N_3  and  C_23 
REMARK    2  A    between atoms: N_6  and  C_7 
REMARK    3  A    between atoms: C_7  and  C_8 
REMARK    4  A    between atoms: C_8  and  C_9 
REMARK    5  A    between atoms: C_9  and  C_10 
REMARK    6  A    between atoms: C_10  and  O_11 
REMARK    7  A    between atoms: O_11  and  C_12 
ROOT
ATOM      1  C           0     220.673 249.252 298.176  0.00  0.00     0.272 C 
ENDROOT
BRANCH   1   2
ATOM      2  N           0     220.424 247.838 298.490  0.00  0.00     0.090 N 
ATOM      3  C           0     221.251 247.050 297.567  0.00  0.00     0.287 C 
ATOM      4  C           0     221.137 245.565 297.915  0.00  0.00     0.126 C 
ATOM      5  N           0     221.665 245.333 299.264  0.00  0.00    -0.279 NA
ATOM      6  C           0     220.840 246.121 300.187  0.00  0.00     0.126 C 
ATOM      7  C           0     220.953 247.605 299.840  0.00  0.00     0.287 C 
BRANCH   5   8
ATOM      8  C           0     221.430 243.990 299.562  0.00  0.00     0.022 A 
ATOM      9  C           0     220.225 243.416 299.221  0.00  0.00     0.024 A 
ATOM     10  C           0     219.960 242.082 299.496  0.00  0.00     0.003 A 
ATOM     11  C           0     220.914 241.314 300.134  0.00  0.00     0.020 A 
ATOM     12  C           0     222.124 241.877 300.485  0.00  0.00     0.016 A 
ATOM     13  C           0     222.432 243.227 300.217  0.00  0.00     0.003 A 
ATOM     14  S           0     223.582 241.268 301.291  0.00  0.00    -0.101 SA
ATOM     15  C           0     223.753 243.647 300.659  0.00  0.00     0.021 A 
ATOM     16  C           0     224.556 242.761 301.265  0.00  0.00     0.051 A 
ENDBRANCH   5   8
ENDBRANCH   1   2
BRANCH   1  17
ATOM     17  C           0     220.750 250.056 299.475  0.00  0.00     0.032 C 
BRANCH  17  18
ATOM     18  C           0     219.635 251.103 299.494  0.00  0.00     0.028 C 
BRANCH  18  19
ATOM     19  C           0     220.176 252.415 300.068  0.00  0.00     0.175 C 
BRANCH  19  20
ATOM     20  O           0     221.507 252.628 299.594  0.00  0.00    -0.351 OA
BRANCH  20  21
ATOM     21  C           0     221.514 253.837 298.977  0.00  0.00     0.070 A 
ATOM     22  C           0     222.315 254.034 297.852  0.00  0.00     0.038 A 
ATOM     23  C           0     222.331 255.240 297.215  0.00  0.00     0.016 A 
ATOM     24  C           0     221.547 256.294 297.702  0.00  0.00    -0.009 A 
ATOM     25  C           0     220.740 256.103 298.841  0.00  0.00     0.048 A 
ATOM     26  C           0     221.548 257.600 297.045  0.00  0.00     0.019 A 
ATOM     27  C           0     220.731 254.865 299.472  0.00  0.00     0.067 A 
ATOM     28  N           0     219.970 257.145 299.312  0.00  0.00    -0.323 N 
ATOM     29  C           0     219.977 258.342 298.701  0.00  0.00     0.245 A 
ATOM     30  H           0     219.414 257.011 300.096  0.00  0.00     0.169 HD
ATOM     31  C           0     220.767 258.584 297.558  0.00  0.00     0.075 A 
ATOM     32  O           0     219.283 259.241 299.145  0.00  0.00    -0.268 OA
ENDBRANCH  20  21
ENDBRANCH  19  20
ENDBRANCH  18  19
ENDBRANCH  17  18
ENDBRANCH   1  17
TORSDOF 7
ENDMDL
MODEL 2
REMARK VINA RESULT:     -10.3      2.087      3.600
REMARK  7 active torsions:
REMARK  status: ('A' for Active; 'I' for Inactive)
REMARK    1  A    between atoms: N_3  and  C_23 
REMARK    2  A    between atoms: N_6  and  C_7 
REMARK    3  A    between atoms: C_7  and  C_8 
REMARK    4  A    between atoms: C_8  and  C_9 
REMARK    5  A    between atoms: C_9  and  C_10 
REMARK    6  A    between atoms: C_10  and  O_11 
REMARK    7  A    between atoms: O_11  and  C_12 
ROOT
ATOM      1  C           0     219.976 245.940 298.406  0.00  0.00     0.272 C 
ENDROOT
BRANCH   1   2
ATOM      2  N           0     221.077 245.234 299.076  0.00  0.00     0.090 N 
ATOM      3  C           0     220.504 244.014 299.657  0.00  0.00     0.287 C 
ATOM      4  C           0     221.618 243.164 300.270  0.00  0.00     0.126 C 
ATOM      5  N           0     222.548 242.739 299.218  0.00  0.00    -0.279 NA
ATOM      6  C           0     223.122 243.958 298.636  0.00  0.00     0.126 C 
ATOM      7  C           0     222.008 244.808 298.024  0.00  0.00     0.287 C 
BRANCH   5   8
ATOM      8  C           0     223.595 242.068 299.854  0.00  0.00     0.022 A 
ATOM      9  C           0     224.448 242.764 300.682  0.00  0.00     0.024 A 
ATOM     10  C           0     225.495 242.128 301.335  0.00  0.00     0.003 A 
ATOM     11  C           0     225.695 240.775 301.147  0.00  0.00     0.020 A 
ATOM     12  C           0     224.850 240.066 300.317  0.00  0.00     0.016 A 
ATOM     13  C           0     223.774 240.676 299.641  0.00  0.00     0.003 A 
ATOM     14  S           0     224.752 238.368 299.812  0.00  0.00    -0.101 SA
ATOM     15  C           0     222.990 239.774 298.809  0.00  0.00     0.021 A 
ATOM     16  C           0     223.329 238.479 298.744  0.00  0.00     0.051 A 
ENDBRANCH   5   8
ENDBRANCH   1   2
BRANCH   1  17
ATOM     17  C           0     220.122 247.445 298.631  0.00  0.00     0.032 C 
BRANCH  17  18
ATOM     18  C           0     220.850 247.696 299.953  0.00  0.00     0.028 C 
BRANCH  18  19
ATOM     19  C           0     221.447 249.105 299.948  0.00  0.00     0.175 C 
BRANCH  19  20
ATOM     20  O           0     222.101 249.340 298.700  0.00  0.00    -0.351 OA
BRANCH  20  21
ATOM     21  C           0     222.102 250.683 298.503  0.00  0.00     0.070 A 
ATOM     22  C           0     222.878 251.232 297.483  0.00  0.00     0.038 A 
ATOM     23  C           0     222.887 252.579 297.268  0.00  0.00     0.016 A 
ATOM     24  C           0     222.119 253.419 298.084  0.00  0.00    -0.009 A 
ATOM     25  C           0     221.336 252.871 299.119  0.00  0.00     0.048 A 
ATOM     26  C           0     222.112 254.867 297.881  0.00  0.00     0.019 A 
ATOM     27  C           0     221.335 251.496 299.320  0.00  0.00     0.067 A 
ATOM     28  N           0     220.582 253.705 299.917  0.00  0.00    -0.323 N 
ATOM     29  C           0     220.582 255.035 299.723  0.00  0.00     0.245 A 
ATOM     30  H           0     220.043 253.326 300.629  0.00  0.00     0.169 HD
ATOM     31  C           0     221.349 255.633 298.701  0.00  0.00     0.075 A 
ATOM     32  O           0     219.903 255.742 300.448  0.00  0.00    -0.268 OA
ENDBRANCH  20  21
ENDBRANCH  19  20
ENDBRANCH  18  19
ENDBRANCH  17  18
ENDBRANCH   1  17
TORSDOF 7
ENDMDL
MODEL 3
REMARK VINA RESULT:     -10.3      2.062      3.074
REMARK  7 active torsions:
REMARK  status: ('A' for Active; 'I' for Inactive)
REMARK    1  A    between atoms: N_3  and  C_23 
REMARK    2  A    between atoms: N_6  and  C_7 
REMARK    3  A    between atoms: C_7  and  C_8 
REMARK    4  A    between atoms: C_8  and  C_9 
REMARK    5  A    between atoms: C_9  and  C_10 
REMARK    6  A    between atoms: C_10  and  O_11 
REMARK    7  A    between atoms: O_11  and  C_12 
ROOT
ATOM      1  C           0     219.863 246.083 298.658  0.00  0.00     0.272 C 
ENDROOT
BRANCH   1   2
ATOM      2  N           0     220.263 244.679 298.491  0.00  0.00     0.090 N 
ATOM      3  C           0     221.664 244.690 298.049  0.00  0.00     0.287 C 
ATOM      4  C           0     222.189 243.256 297.971  0.00  0.00     0.126 C 
ATOM      5  N           0     222.168 242.650 299.306  0.00  0.00    -0.279 NA
ATOM      6  C           0     220.769 242.639 299.749  0.00  0.00     0.126 C 
ATOM      7  C           0     220.243 244.072 299.828  0.00  0.00     0.287 C 
BRANCH   5   8
ATOM      8  C           0     222.549 241.316 299.148  0.00  0.00     0.022 A 
ATOM      9  C           0     221.764 240.466 298.401  0.00  0.00     0.024 A 
ATOM     10  C           0     222.116 239.136 298.217  0.00  0.00     0.003 A 
ATOM     11  C           0     223.267 238.648 298.802  0.00  0.00     0.020 A 
ATOM     12  C           0     224.061 239.487 299.556  0.00  0.00     0.016 A 
ATOM     13  C           0     223.740 240.845 299.761  0.00  0.00     0.003 A 
ATOM     14  S           0     225.577 239.277 300.455  0.00  0.00    -0.101 SA
ATOM     15  C           0     224.691 241.576 300.584  0.00  0.00     0.021 A 
ATOM     16  C           0     225.764 240.939 301.073  0.00  0.00     0.051 A 
ENDBRANCH   5   8
ENDBRANCH   1   2
BRANCH   1  17
ATOM     17  C           0     221.111 246.959 298.780  0.00  0.00     0.032 C 
BRANCH  17  18
ATOM     18  C           0     221.006 247.826 300.036  0.00  0.00     0.028 C 
BRANCH  18  19
ATOM     19  C           0     221.004 249.303 299.638  0.00  0.00     0.175 C 
BRANCH  19  20
ATOM     20  O           0     222.263 249.638 299.051  0.00  0.00    -0.351 OA
BRANCH  20  21
ATOM     21  C           0     222.207 250.957 298.730  0.00  0.00     0.070 A 
ATOM     22  C           0     222.883 251.422 297.603  0.00  0.00     0.038 A 
ATOM     23  C           0     222.835 252.743 297.262  0.00  0.00     0.016 A 
ATOM     24  C           0     222.109 253.640 298.056  0.00  0.00    -0.009 A 
ATOM     25  C           0     221.427 253.176 299.198  0.00  0.00     0.048 A 
ATOM     26  C           0     222.043 255.061 297.719  0.00  0.00     0.019 A 
ATOM     27  C           0     221.484 251.827 299.526  0.00  0.00     0.067 A 
ATOM     28  N           0     220.714 254.065 299.974  0.00  0.00    -0.323 N 
ATOM     29  C           0     220.659 255.370 299.656  0.00  0.00     0.245 A 
ATOM     30  H           0     220.246 253.744 300.760  0.00  0.00     0.169 HD
ATOM     31  C           0     221.324 255.884 298.524  0.00  0.00     0.075 A 
ATOM     32  O           0     220.019 256.128 300.365  0.00  0.00    -0.268 OA
ENDBRANCH  20  21
ENDBRANCH  19  20
ENDBRANCH  18  19
ENDBRANCH  17  18
ENDBRANCH   1  17
TORSDOF 7
ENDMDL
MODEL 4
REMARK VINA RESULT:     -10.1      1.637      2.992
REMARK  7 active torsions:
REMARK  status: ('A' for Active; 'I' for Inactive)
REMARK    1  A    between atoms: N_3  and  C_23 
REMARK    2  A    between atoms: N_6  and  C_7 
REMARK    3  A    between atoms: C_7  and  C_8 
REMARK    4  A    between atoms: C_8  and  C_9 
REMARK    5  A    between atoms: C_9  and  C_10 
REMARK    6  A    between atoms: C_10  and  O_11 
REMARK    7  A    between atoms: O_11  and  C_12 
ROOT
ATOM      1  C           0     219.617 246.335 298.083  0.00  0.00     0.272 C 
ENDROOT
BRANCH   1   2
ATOM      2  N           0     220.708 245.678 298.815  0.00  0.00     0.090 N 
ATOM      3  C           0     220.133 244.482 299.445  0.00  0.00     0.287 C 
ATOM      4  C           0     221.241 243.678 300.126  0.00  0.00     0.126 C 
ATOM      5  N           0     222.200 243.209 299.120  0.00  0.00    -0.279 NA
ATOM      6  C           0     222.775 244.402 298.489  0.00  0.00     0.126 C 
ATOM      7  C           0     221.668 245.208 297.808  0.00  0.00     0.287 C 
BRANCH   5   8
ATOM      8  C           0     223.237 242.583 299.815  0.00  0.00     0.022 A 
ATOM      9  C           0     224.014 243.316 300.685  0.00  0.00     0.024 A 
ATOM     10  C           0     225.050 242.725 301.397  0.00  0.00     0.003 A 
ATOM     11  C           0     225.316 241.382 301.224  0.00  0.00     0.020 A 
ATOM     12  C           0     224.549 240.637 300.352  0.00  0.00     0.016 A 
ATOM     13  C           0     223.486 241.200 299.616  0.00  0.00     0.003 A 
ATOM     14  S           0     224.550 238.935 299.848  0.00  0.00    -0.101 SA
ATOM     15  C           0     222.787 240.265 298.746  0.00  0.00     0.021 A 
ATOM     16  C           0     223.184 238.985 298.704  0.00  0.00     0.051 A 
ENDBRANCH   5   8
ENDBRANCH   1   2
BRANCH   1  17
ATOM     17  C           0     219.877 247.841 298.022  0.00  0.00     0.032 C 
BRANCH  17  18
ATOM     18  C           0     220.601 248.286 299.295  0.00  0.00     0.028 C 
BRANCH  18  19
ATOM     19  C           0     221.268 249.642 299.055  0.00  0.00     0.175 C 
BRANCH  19  20
ATOM     20  O           0     220.972 250.517 300.145  0.00  0.00    -0.351 OA
BRANCH  20  21
ATOM     21  C           0     221.084 251.785 299.672  0.00  0.00     0.070 A 
ATOM     22  C           0     222.010 252.069 298.669  0.00  0.00     0.038 A 
ATOM     23  C           0     222.133 253.336 298.179  0.00  0.00     0.016 A 
ATOM     24  C           0     221.331 254.362 298.693  0.00  0.00    -0.009 A 
ATOM     25  C           0     220.396 254.082 299.710  0.00  0.00     0.048 A 
ATOM     26  C           0     221.443 255.731 298.192  0.00  0.00     0.019 A 
ATOM     27  C           0     220.281 252.784 300.193  0.00  0.00     0.067 A 
ATOM     28  N           0     219.610 255.098 300.211  0.00  0.00    -0.323 N 
ATOM     29  C           0     219.720 256.352 299.743  0.00  0.00     0.245 A 
ATOM     30  H           0     218.967 254.903 300.910  0.00  0.00     0.169 HD
ATOM     31  C           0     220.640 256.685 298.726  0.00  0.00     0.075 A 
ATOM     32  O           0     219.008 257.226 300.208  0.00  0.00    -0.268 OA
ENDBRANCH  20  21
ENDBRANCH  19  20
ENDBRANCH  18  19
ENDBRANCH  17  18
ENDBRANCH   1  17
TORSDOF 7
ENDMDL
MODEL 5
REMARK VINA RESULT:     -10.0      6.442     14.445
REMARK  7 active torsions:
REMARK  status: ('A' for Active; 'I' for Inactive)
REMARK    1  A    between atoms: N_3  and  C_23 
REMARK    2  A    between atoms: N_6  and  C_7 
REMARK    3  A    between atoms: C_7  and  C_8 
REMARK    4  A    between atoms: C_8  and  C_9 
REMARK    5  A    between atoms: C_9  and  C_10 
REMARK    6  A    between atoms: C_10  and  O_11 
REMARK    7  A    between atoms: O_11  and  C_12 
ROOT
ATOM      1  C           0     220.360 259.529 297.636  0.00  0.00     0.272 C 
ENDROOT
BRANCH   1   2
ATOM      2  N           0     219.336 260.403 298.223  0.00  0.00     0.090 N 
ATOM      3  C           0     219.082 259.903 299.580  0.00  0.00     0.287 C 
ATOM      4  C           0     218.111 260.840 300.300  0.00  0.00     0.126 C 
ATOM      5  N           0     218.721 262.166 300.443  0.00  0.00    -0.279 NA
ATOM      6  C           0     218.976 262.668 299.087  0.00  0.00     0.126 C 
ATOM      7  C           0     219.946 261.731 298.366  0.00  0.00     0.287 C 
BRANCH   5   8
ATOM      8  C           0     217.748 262.997 301.001  0.00  0.00     0.022 A 
ATOM      9  C           0     216.432 262.863 300.615  0.00  0.00     0.024 A 
ATOM     10  C           0     215.439 263.668 301.155  0.00  0.00     0.003 A 
ATOM     11  C           0     215.771 264.630 302.087  0.00  0.00     0.020 A 
ATOM     12  C           0     217.085 264.779 302.480  0.00  0.00     0.016 A 
ATOM     13  C           0     218.122 263.977 301.959  0.00  0.00     0.003 A 
ATOM     14  S           0     217.922 265.855 303.616  0.00  0.00    -0.101 SA
ATOM     15  C           0     219.444 264.274 302.488  0.00  0.00     0.021 A 
ATOM     16  C           0     219.585 265.250 303.397  0.00  0.00     0.051 A 
ENDBRANCH   5   8
ENDBRANCH   1   2
BRANCH   1  17
ATOM     17  C           0     219.828 258.097 297.562  0.00  0.00     0.032 C 
BRANCH  17  18
ATOM     18  C           0     220.568 257.334 296.461  0.00  0.00     0.028 C 
BRANCH  18  19
ATOM     19  C           0     221.907 256.828 297.002  0.00  0.00     0.175 C 
BRANCH  19  20
ATOM     20  O           0     221.692 256.141 298.236  0.00  0.00    -0.351 OA
BRANCH  20  21
ATOM     21  C           0     222.036 254.844 298.027  0.00  0.00     0.070 A 
ATOM     22  C           0     222.798 254.502 296.910  0.00  0.00     0.038 A 
ATOM     23  C           0     223.157 253.205 296.687  0.00  0.00     0.016 A 
ATOM     24  C           0     222.748 252.206 297.580  0.00  0.00    -0.009 A 
ATOM     25  C           0     221.974 252.545 298.708  0.00  0.00     0.048 A 
ATOM     26  C           0     223.113 250.807 297.364  0.00  0.00     0.019 A 
ATOM     27  C           0     221.623 253.872 298.922  0.00  0.00     0.067 A 
ATOM     28  N           0     221.577 251.556 299.582  0.00  0.00    -0.323 N 
ATOM     29  C           0     221.917 250.272 299.376  0.00  0.00     0.245 A 
ATOM     30  H           0     221.044 251.790 300.358  0.00  0.00     0.169 HD
ATOM     31  C           0     222.690 249.882 298.263  0.00  0.00     0.075 A 
ATOM     32  O           0     221.549 249.424 300.170  0.00  0.00    -0.268 OA
ENDBRANCH  20  21
ENDBRANCH  19  20
ENDBRANCH  18  19
ENDBRANCH  17  18
ENDBRANCH   1  17
TORSDOF 7
ENDMDL
MODEL 6
REMARK VINA RESULT:     -10.0      4.563     11.913
REMARK  7 active torsions:
REMARK  status: ('A' for Active; 'I' for Inactive)
REMARK    1  A    between atoms: N_3  and  C_23 
REMARK    2  A    between atoms: N_6  and  C_7 
REMARK    3  A    between atoms: C_7  and  C_8 
REMARK    4  A    between atoms: C_8  and  C_9 
REMARK    5  A    between atoms: C_9  and  C_10 
REMARK    6  A    between atoms: C_10  and  O_11 
REMARK    7  A    between atoms: O_11  and  C_12 
ROOT
ATOM      1  C           0     220.979 248.802 299.880  0.00  0.00     0.272 C 
ENDROOT
BRANCH   1   2
ATOM      2  N           0     221.005 250.058 299.117  0.00  0.00     0.090 N 
ATOM      3  C           0     220.354 251.073 299.955  0.00  0.00     0.287 C 
ATOM      4  C           0     220.453 252.439 299.275  0.00  0.00     0.126 C 
ATOM      5  N           0     221.862 252.829 299.153  0.00  0.00    -0.279 NA
ATOM      6  C           0     222.514 251.814 298.317  0.00  0.00     0.126 C 
ATOM      7  C           0     222.416 250.447 298.995  0.00  0.00     0.287 C 
BRANCH   5   8
ATOM      8  C           0     221.887 254.022 298.429  0.00  0.00     0.022 A 
ATOM      9  C           0     222.696 254.129 297.319  0.00  0.00     0.024 A 
ATOM     10  C           0     222.741 255.299 296.572  0.00  0.00     0.003 A 
ATOM     11  C           0     221.973 256.381 296.952  0.00  0.00     0.020 A 
ATOM     12  C           0     221.162 256.289 298.065  0.00  0.00     0.016 A 
ATOM     13  C           0     221.085 255.117 298.845  0.00  0.00     0.003 A 
ATOM     14  S           0     220.047 257.405 298.877  0.00  0.00    -0.101 SA
ATOM     15  C           0     220.179 255.202 299.981  0.00  0.00     0.021 A 
ATOM     16  C           0     219.506 256.340 300.201  0.00  0.00     0.051 A 
ENDBRANCH   5   8
ENDBRANCH   1   2
BRANCH   1  17
ATOM     17  C           0     221.217 247.624 298.933  0.00  0.00     0.032 C 
BRANCH  17  18
ATOM     18  C           0     220.001 246.696 298.956  0.00  0.00     0.028 C 
BRANCH  18  19
ATOM     19  C           0     220.467 245.249 299.129  0.00  0.00     0.175 C 
BRANCH  19  20
ATOM     20  O           0     221.571 244.997 298.258  0.00  0.00    -0.351 OA
BRANCH  20  21
ATOM     21  C           0     222.426 244.186 298.932  0.00  0.00     0.070 A 
ATOM     22  C           0     223.700 243.947 298.419  0.00  0.00     0.038 A 
ATOM     23  C           0     224.575 243.138 299.085  0.00  0.00     0.016 A 
ATOM     24  C           0     224.186 242.534 300.287  0.00  0.00    -0.009 A 
ATOM     25  C           0     222.897 242.768 300.807  0.00  0.00     0.048 A 
ATOM     26  C           0     225.098 241.658 301.020  0.00  0.00     0.019 A 
ATOM     27  C           0     222.023 243.599 300.118  0.00  0.00     0.067 A 
ATOM     28  N           0     222.523 242.170 301.992  0.00  0.00    -0.323 N 
ATOM     29  C           0     223.369 241.366 302.659  0.00  0.00     0.245 A 
ATOM     30  H           0     221.636 242.332 302.349  0.00  0.00     0.169 HD
ATOM     31  C           0     224.669 241.100 302.181  0.00  0.00     0.075 A 
ATOM     32  O           0     223.004 240.854 303.704  0.00  0.00    -0.268 OA
ENDBRANCH  20  21
ENDBRANCH  19  20
ENDBRANCH  18  19
ENDBRANCH  17  18
ENDBRANCH   1  17
TORSDOF 7
ENDMDL
MODEL 7
REMARK VINA RESULT:     -10.0      4.547     11.829
REMARK  7 active torsions:
REMARK  status: ('A' for Active; 'I' for Inactive)
REMARK    1  A    between atoms: N_3  and  C_23 
REMARK    2  A    between atoms: N_6  and  C_7 
REMARK    3  A    between atoms: C_7  and  C_8 
REMARK    4  A    between atoms: C_8  and  C_9 
REMARK    5  A    between atoms: C_9  and  C_10 
REMARK    6  A    between atoms: C_10  and  O_11 
REMARK    7  A    between atoms: O_11  and  C_12 
ROOT
ATOM      1  C           0     221.351 248.143 299.844  0.00  0.00     0.272 C 
ENDROOT
BRANCH   1   2
ATOM      2  N           0     221.050 249.554 300.123  0.00  0.00     0.090 N 
ATOM      3  C           0     222.310 250.292 299.973  0.00  0.00     0.287 C 
ATOM      4  C           0     222.050 251.791 300.129  0.00  0.00     0.126 C 
ATOM      5  N           0     221.157 252.251 299.060  0.00  0.00    -0.279 NA
ATOM      6  C           0     219.897 251.513 299.209  0.00  0.00     0.126 C 
ATOM      7  C           0     220.156 250.015 299.053  0.00  0.00     0.287 C 
BRANCH   5   8
ATOM      8  C           0     220.871 253.591 299.324  0.00  0.00     0.022 A 
ATOM      9  C           0     220.034 253.917 300.369  0.00  0.00     0.024 A 
ATOM     10  C           0     219.734 255.240 300.664  0.00  0.00     0.003 A 
ATOM     11  C           0     220.271 256.250 299.893  0.00  0.00     0.020 A 
ATOM     12  C           0     221.108 255.938 298.840  0.00  0.00     0.016 A 
ATOM     13  C           0     221.441 254.608 298.513  0.00  0.00     0.003 A 
ATOM     14  S           0     221.987 256.897 297.634  0.00  0.00    -0.101 SA
ATOM     15  C           0     222.335 254.468 297.373  0.00  0.00     0.021 A 
ATOM     16  C           0     222.764 255.567 296.737  0.00  0.00     0.051 A 
ENDBRANCH   5   8
ENDBRANCH   1   2
BRANCH   1  17
ATOM     17  C           0     220.093 247.447 299.322  0.00  0.00     0.032 C 
BRANCH  17  18
ATOM     18  C           0     220.468 246.510 298.171  0.00  0.00     0.028 C 
BRANCH  18  19
ATOM     19  C           0     221.102 245.237 298.736  0.00  0.00     0.175 C 
BRANCH  19  20
ATOM     20  O           0     222.458 245.146 298.294  0.00  0.00    -0.351 OA
BRANCH  20  21
ATOM     21  C           0     223.014 244.095 298.950  0.00  0.00     0.070 A 
ATOM     22  C           0     224.062 243.389 298.360  0.00  0.00     0.038 A 
ATOM     23  C           0     224.637 242.333 299.006  0.00  0.00     0.016 A 
ATOM     24  C           0     224.163 241.948 300.267  0.00  0.00    -0.009 A 
ATOM     25  C           0     223.101 242.654 300.865  0.00  0.00     0.048 A 
ATOM     26  C           0     224.755 240.818 300.981  0.00  0.00     0.019 A 
ATOM     27  C           0     222.532 243.730 300.195  0.00  0.00     0.067 A 
ATOM     28  N           0     222.641 242.269 302.107  0.00  0.00    -0.323 N 
ATOM     29  C           0     223.192 241.229 302.756  0.00  0.00     0.245 A 
ATOM     30  H           0     221.910 242.756 302.518  0.00  0.00     0.169 HD
ATOM     31  C           0     224.256 240.489 302.200  0.00  0.00     0.075 A 
ATOM     32  O           0     222.760 240.916 303.852  0.00  0.00    -0.268 OA
ENDBRANCH  20  21
ENDBRANCH  19  20
ENDBRANCH  18  19
ENDBRANCH  17  18
ENDBRANCH   1  17
TORSDOF 7
ENDMDL
MODEL 8
REMARK VINA RESULT:     -10.0      1.702      2.334
REMARK  7 active torsions:
REMARK  status: ('A' for Active; 'I' for Inactive)
REMARK    1  A    between atoms: N_3  and  C_23 
REMARK    2  A    between atoms: N_6  and  C_7 
REMARK    3  A    between atoms: C_7  and  C_8 
REMARK    4  A    between atoms: C_8  and  C_9 
REMARK    5  A    between atoms: C_9  and  C_10 
REMARK    6  A    between atoms: C_10  and  O_11 
REMARK    7  A    between atoms: O_11  and  C_12 
ROOT
ATOM      1  C           0     219.736 247.533 297.729  0.00  0.00     0.272 C 
ENDROOT
BRANCH   1   2
ATOM      2  N           0     220.109 246.115 297.825  0.00  0.00     0.090 N 
ATOM      3  C           0     221.532 246.028 297.474  0.00  0.00     0.287 C 
ATOM      4  C           0     222.023 244.594 297.671  0.00  0.00     0.126 C 
ATOM      5  N           0     221.910 244.223 299.086  0.00  0.00    -0.279 NA
ATOM      6  C           0     220.488 244.310 299.438  0.00  0.00     0.126 C 
ATOM      7  C           0     219.996 245.744 299.242  0.00  0.00     0.287 C 
BRANCH   5   8
ATOM      8  C           0     222.265 242.876 299.178  0.00  0.00     0.022 A 
ATOM      9  C           0     221.561 241.935 298.460  0.00  0.00     0.024 A 
ATOM     10  C           0     221.890 240.588 298.523  0.00  0.00     0.003 A 
ATOM     11  C           0     222.934 240.178 299.327  0.00  0.00     0.020 A 
ATOM     12  C           0     223.645 241.109 300.056  0.00  0.00     0.016 A 
ATOM     13  C           0     223.344 242.486 300.014  0.00  0.00     0.003 A 
ATOM     14  S           0     225.016 241.016 301.178  0.00  0.00    -0.101 SA
ATOM     15  C           0     224.198 243.320 300.847  0.00  0.00     0.021 A 
ATOM     16  C           0     225.173 242.748 301.568  0.00  0.00     0.051 A 
ENDBRANCH   5   8
ENDBRANCH   1   2
BRANCH   1  17
ATOM     17  C           0     219.731 248.155 299.126  0.00  0.00     0.032 C 
BRANCH  17  18
ATOM     18  C           0     219.664 249.679 299.007  0.00  0.00     0.028 C 
BRANCH  18  19
ATOM     19  C           0     220.801 250.305 299.817  0.00  0.00     0.175 C 
BRANCH  19  20
ATOM     20  O           0     222.040 250.096 299.138  0.00  0.00    -0.351 OA
BRANCH  20  21
ATOM     21  C           0     222.306 251.233 298.446  0.00  0.00     0.070 A 
ATOM     22  C           0     223.128 251.182 297.321  0.00  0.00     0.038 A 
ATOM     23  C           0     223.402 252.314 296.611  0.00  0.00     0.016 A 
ATOM     24  C           0     222.861 253.539 297.019  0.00  0.00    -0.009 A 
ATOM     25  C           0     222.034 253.599 298.158  0.00  0.00     0.048 A 
ATOM     26  C           0     223.141 254.771 296.282  0.00  0.00     0.019 A 
ATOM     27  C           0     221.761 252.434 298.866  0.00  0.00     0.067 A 
ATOM     28  N           0     221.505 254.809 298.553  0.00  0.00    -0.323 N 
ATOM     29  C           0     221.767 255.935 297.868  0.00  0.00     0.245 A 
ATOM     30  H           0     220.935 254.848 299.337  0.00  0.00     0.169 HD
ATOM     31  C           0     222.590 255.930 296.722  0.00  0.00     0.075 A 
ATOM     32  O           0     221.283 256.988 298.246  0.00  0.00    -0.268 OA
ENDBRANCH  20  21
ENDBRANCH  19  20
ENDBRANCH  18  19
ENDBRANCH  17  18
ENDBRANCH   1  17
TORSDOF 7
ENDMDL
MODEL 9
REMARK VINA RESULT:      -9.9      1.019      1.540
REMARK  7 active torsions:
REMARK  status: ('A' for Active; 'I' for Inactive)
REMARK    1  A    between atoms: N_3  and  C_23 
REMARK    2  A    between atoms: N_6  and  C_7 
REMARK    3  A    between atoms: C_7  and  C_8 
REMARK    4  A    between atoms: C_8  and  C_9 
REMARK    5  A    between atoms: C_9  and  C_10 
REMARK    6  A    between atoms: C_10  and  O_11 
REMARK    7  A    between atoms: O_11  and  C_12 
ROOT
ATOM      1  C           0     220.003 248.887 297.802  0.00  0.00     0.272 C 
ENDROOT
BRANCH   1   2
ATOM      2  N           0     219.902 247.448 298.085  0.00  0.00     0.090 N 
ATOM      3  C           0     221.125 246.829 297.558  0.00  0.00     0.287 C 
ATOM      4  C           0     221.147 245.345 297.925  0.00  0.00     0.126 C 
ATOM      5  N           0     221.190 245.198 299.384  0.00  0.00    -0.279 NA
ATOM      6  C           0     219.968 245.818 299.912  0.00  0.00     0.126 C 
ATOM      7  C           0     219.945 247.302 299.545  0.00  0.00     0.287 C 
BRANCH   5   8
ATOM      8  C           0     221.095 243.831 299.654  0.00  0.00     0.022 A 
ATOM      9  C           0     219.922 243.162 299.382  0.00  0.00     0.024 A 
ATOM     10  C           0     219.794 241.803 299.631  0.00  0.00     0.003 A 
ATOM     11  C           0     220.856 241.106 300.172  0.00  0.00     0.020 A 
ATOM     12  C           0     222.036 241.764 300.454  0.00  0.00     0.016 A 
ATOM     13  C           0     222.205 243.143 300.210  0.00  0.00     0.003 A 
ATOM     14  S           0     223.598 241.266 301.132  0.00  0.00    -0.101 SA
ATOM     15  C           0     223.514 243.667 300.568  0.00  0.00     0.021 A 
ATOM     16  C           0     224.434 242.840 301.085  0.00  0.00     0.051 A 
ENDBRANCH   5   8
ENDBRANCH   1   2
BRANCH   1  17
ATOM     17  C           0     220.774 249.576 298.928  0.00  0.00     0.032 C 
BRANCH  17  18
ATOM     18  C           0     221.916 250.403 298.334  0.00  0.00     0.028 C 
BRANCH  18  19
ATOM     19  C           0     222.018 251.738 299.075  0.00  0.00     0.175 C 
BRANCH  19  20
ATOM     20  O           0     222.357 252.771 298.148  0.00  0.00    -0.351 OA
BRANCH  20  21
ATOM     21  C           0     221.673 253.880 298.529  0.00  0.00     0.070 A 
ATOM     22  C           0     220.715 253.788 299.539  0.00  0.00     0.038 A 
ATOM     23  C           0     220.021 254.893 299.939  0.00  0.00     0.016 A 
ATOM     24  C           0     220.265 256.127 299.323  0.00  0.00    -0.009 A 
ATOM     25  C           0     221.227 256.225 298.299  0.00  0.00     0.048 A 
ATOM     26  C           0     219.533 257.327 299.726  0.00  0.00     0.019 A 
ATOM     27  C           0     221.928 255.090 297.909  0.00  0.00     0.067 A 
ATOM     28  N           0     221.461 257.445 297.699  0.00  0.00    -0.323 N 
ATOM     29  C           0     220.784 258.542 298.076  0.00  0.00     0.245 A 
ATOM     30  H           0     222.124 257.510 296.994  0.00  0.00     0.169 HD
ATOM     31  C           0     219.810 258.497 299.096  0.00  0.00     0.075 A 
ATOM     32  O           0     221.016 259.604 297.524  0.00  0.00    -0.268 OA
ENDBRANCH  20  21
ENDBRANCH  19  20
ENDBRANCH  18  19
ENDBRANCH  17  18
ENDBRANCH   1  17
TORSDOF 7
ENDMDL
MODEL 10
REMARK VINA RESULT:      -9.8      2.149      3.292
REMARK  7 active torsions:
REMARK  status: ('A' for Active; 'I' for Inactive)
REMARK    1  A    between atoms: N_3  and  C_23 
REMARK    2  A    between atoms: N_6  and  C_7 
REMARK    3  A    between atoms: C_7  and  C_8 
REMARK    4  A    between atoms: C_8  and  C_9 
REMARK    5  A    between atoms: C_9  and  C_10 
REMARK    6  A    between atoms: C_10  and  O_11 
REMARK    7  A    between atoms: O_11  and  C_12 
ROOT
ATOM      1  C           0     219.948 246.339 299.493  0.00  0.00     0.272 C 
ENDROOT
BRANCH   1   2
ATOM      2  N           0     220.374 244.997 299.071  0.00  0.00     0.090 N 
ATOM      3  C           0     221.842 244.999 299.080  0.00  0.00     0.287 C 
ATOM      4  C           0     222.360 243.595 298.768  0.00  0.00     0.126 C 
ATOM      5  N           0     221.929 242.666 299.819  0.00  0.00    -0.279 NA
ATOM      6  C           0     220.461 242.663 299.811  0.00  0.00     0.126 C 
ATOM      7  C           0     219.943 244.067 300.122  0.00  0.00     0.287 C 
BRANCH   5   8
ATOM      8  C           0     222.334 241.391 299.419  0.00  0.00     0.022 A 
ATOM      9  C           0     221.577 240.689 298.507  0.00  0.00     0.024 A 
ATOM     10  C           0     221.954 239.422 298.082  0.00  0.00     0.003 A 
ATOM     11  C           0     223.102 238.846 298.589  0.00  0.00     0.020 A 
ATOM     12  C           0     223.867 239.536 299.507  0.00  0.00     0.016 A 
ATOM     13  C           0     223.520 240.826 299.958  0.00  0.00     0.003 A 
ATOM     14  S           0     225.368 239.178 300.382  0.00  0.00    -0.101 SA
ATOM     15  C           0     224.443 241.400 300.925  0.00  0.00     0.021 A 
ATOM     16  C           0     225.517 240.694 301.308  0.00  0.00     0.051 A 
ENDBRANCH   5   8
ENDBRANCH   1   2
BRANCH   1  17
ATOM     17  C           0     221.015 247.361 299.099  0.00  0.00     0.032 C 
BRANCH  17  18
ATOM     18  C           0     220.359 248.523 298.351  0.00  0.00     0.028 C 
BRANCH  18  19
ATOM     19  C           0     220.082 249.668 299.328  0.00  0.00     0.175 C 
BRANCH  19  20
ATOM     20  O           0     221.321 250.219 299.777  0.00  0.00    -0.351 OA
BRANCH  20  21
ATOM     21  C           0     221.310 251.535 299.442  0.00  0.00     0.070 A 
ATOM     22  C           0     220.517 252.425 300.165  0.00  0.00     0.038 A 
ATOM     23  C           0     220.496 253.751 299.846  0.00  0.00     0.016 A 
ATOM     24  C           0     221.269 254.221 298.776  0.00  0.00    -0.009 A 
ATOM     25  C           0     222.068 253.326 298.039  0.00  0.00     0.048 A 
ATOM     26  C           0     221.263 255.636 298.407  0.00  0.00     0.019 A 
ATOM     27  C           0     222.081 251.980 298.383  0.00  0.00     0.067 A 
ATOM     28  N           0     222.827 253.797 296.988  0.00  0.00    -0.323 N 
ATOM     29  C           0     222.815 255.099 296.657  0.00  0.00     0.245 A 
ATOM     30  H           0     223.377 253.179 296.482  0.00  0.00     0.169 HD
ATOM     31  C           0     222.032 256.036 297.363  0.00  0.00     0.075 A 
ATOM     32  O           0     223.499 255.481 295.722  0.00  0.00    -0.268 OA
ENDBRANCH  20  21
ENDBRANCH  19  20
ENDBRANCH  18  19
ENDBRANCH  17  18
ENDBRANCH   1  17
TORSDOF 7
ENDMDL
