MODEL 1
REMARK VINA RESULT:      -9.2      0.000      0.000
REMARK  10 active torsions:
REMARK  status: ('A' for Active; 'I' for Inactive)
REMARK    1  A    between atoms: C21_65925  and  C15_65939 
REMARK    2  A    between atoms: C24_65928  and  O2_65952 
REMARK    3  A    between atoms: C25_65929  and  O3_65953 
REMARK    4  A    between atoms: C11_65935  and  C18_65942 
REMARK    5  A    between atoms: C12_65936  and  C13_65937 
REMARK    6  A    between atoms: C13_65937  and  C20_65944 
REMARK    7  A    between atoms: C15_65939  and  C17_65941 
REMARK    8  A    between atoms: C6_65946  and  C7_65947 
REMARK    9  A    between atoms: C6_65946  and  C8_65948 
REMARK   10  A    between atoms: C7_65947  and  C9_65949 
ROOT
HETATM    1  C26 HQH D 501     219.403 252.007 300.723  1.00 20.76     0.026 C 
HETATM    2  C17 HQH D 501     219.825 251.237 299.515  1.00 20.76    -0.043 C 
HETATM    3  C20 HQH D 501     220.951 251.519 298.871  1.00 20.76    -0.028 C 
ENDROOT
BRANCH   2   4
HETATM    4  C15 HQH D 501     218.836 250.145 299.149  1.00 20.76     0.048 C 
BRANCH   4   5
HETATM    5  C21 HQH D 501     219.140 249.249 297.980  1.00 20.76    -0.022 C 
HETATM    6  C18 HQH D 501     219.831 248.114 297.990  1.00 20.76    -0.009 C 
BRANCH   6   7
HETATM    7  C11 HQH D 501     220.136 247.202 299.109  1.00 20.76    -0.026 C 
HETATM    8  C22 HQH D 501     221.063 247.654 300.151  1.00 20.76     0.031 C 
HETATM    9  C8  HQH D 501     219.502 245.991 299.166  1.00 20.76    -0.028 C 
BRANCH   9  10
HETATM   10  C6  HQH D 501     219.621 244.848 300.145  1.00 20.76     0.056 C 
HETATM   11  C10 HQH D 501     218.241 244.589 300.761  1.00 20.76     0.008 C 
BRANCH  10  12
HETATM   12  C7  HQH D 501     220.213 243.589 299.495  1.00 20.76     0.174 C 
HETATM   13  O1  HQH D 501     220.320 243.788 298.098  1.00 20.76    -0.219 OA
BRANCH  12  14
HETATM   14  C9  HQH D 501     221.570 243.162 300.018  1.00 20.76    -0.018 C 
HETATM   15  C14 HQH D 501     221.616 241.720 300.425  1.00 20.76     0.029 C 
HETATM   16  C16 HQH D 501     222.583 244.019 300.119  1.00 20.76    -0.032 C 
HETATM   17  C27 HQH D 501     223.949 243.725 300.661  1.00 20.76     0.030 C 
ENDBRANCH  12  14
ENDBRANCH  10  12
ENDBRANCH   9  10
ENDBRANCH   6   7
ENDBRANCH   4   5
ENDBRANCH   2   4
BRANCH   3  18
HETATM   18  C13 HQH D 501     222.026 252.514 299.229  1.00 20.76     0.071 C 
BRANCH  18  19
HETATM   19  C12 HQH D 501     221.843 253.919 298.707  1.00 20.76     0.065 A 
HETATM   20  C19 HQH D 501     222.410 254.396 297.509  1.00 20.76     0.033 A 
HETATM   21  C23 HQH D 501     222.164 255.747 297.126  1.00 20.76     0.218 A 
HETATM   22  C28 HQH D 501     223.258 253.557 296.587  1.00 20.76     0.036 C 
HETATM   23  O4  HQH D 501     222.667 256.180 296.061  1.00 20.76    -0.285 OA
HETATM   24  C25 HQH D 501     221.366 256.600 297.966  1.00 20.76     0.174 A 
HETATM   25  C24 HQH D 501     220.830 256.074 299.144  1.00 20.76     0.204 A 
HETATM   26  N5  HQH D 501     221.081 254.768 299.475  1.00 20.76    -0.225 NA
BRANCH  24  27
HETATM   27  O3  HQH D 501     221.029 257.909 297.735  1.00 20.76    -0.322 OA
HETATM   28  C30 HQH D 501     220.103 258.284 296.719  1.00 20.76     0.182 C 
ENDBRANCH  24  27
BRANCH  25  29
HETATM   29  O2  HQH D 501     220.077 256.901 299.900  1.00 20.76    -0.310 OA
HETATM   30  C29 HQH D 501     218.636 256.917 299.920  1.00 20.76     0.183 C 
ENDBRANCH  25  29
ENDBRANCH  18  19
ENDBRANCH   3  18
TORSDOF 10
ENDMDL
MODEL 2
REMARK VINA RESULT:      -9.1      1.154      1.511
REMARK  10 active torsions:
REMARK  status: ('A' for Active; 'I' for Inactive)
REMARK    1  A    between atoms: C21_65925  and  C15_65939 
REMARK    2  A    between atoms: C24_65928  and  O2_65952 
REMARK    3  A    between atoms: C25_65929  and  O3_65953 
REMARK    4  A    between atoms: C11_65935  and  C18_65942 
REMARK    5  A    between atoms: C12_65936  and  C13_65937 
REMARK    6  A    between atoms: C13_65937  and  C20_65944 
REMARK    7  A    between atoms: C15_65939  and  C17_65941 
REMARK    8  A    between atoms: C6_65946  and  C7_65947 
REMARK    9  A    between atoms: C6_65946  and  C8_65948 
REMARK   10  A    between atoms: C7_65947  and  C9_65949 
ROOT
HETATM    1  C26 HQH D 501     221.296 249.032 299.976  1.00 20.76     0.026 C 
HETATM    2  C17 HQH D 501     220.197 249.828 299.350  1.00 20.76    -0.043 C 
HETATM    3  C20 HQH D 501     220.192 251.155 299.390  1.00 20.76    -0.028 C 
ENDROOT
BRANCH   2   4
HETATM    4  C15 HQH D 501     219.146 248.949 298.698  1.00 20.76     0.048 C 
BRANCH   4   5
HETATM    5  C21 HQH D 501     219.468 248.274 297.393  1.00 20.76    -0.022 C 
HETATM    6  C18 HQH D 501     220.169 247.160 297.211  1.00 20.76    -0.009 C 
BRANCH   6   7
HETATM    7  C11 HQH D 501     220.472 246.067 298.156  1.00 20.76    -0.026 C 
HETATM    8  C22 HQH D 501     221.875 245.720 298.402  1.00 20.76     0.031 C 
HETATM    9  C8  HQH D 501     219.438 245.456 298.812  1.00 20.76    -0.028 C 
BRANCH   9  10
HETATM   10  C6  HQH D 501     219.421 244.310 299.794  1.00 20.76     0.056 C 
HETATM   11  C10 HQH D 501     218.206 244.478 300.715  1.00 20.76     0.008 C 
BRANCH  10  12
HETATM   12  C7  HQH D 501     219.431 242.945 299.091  1.00 20.76     0.174 C 
HETATM   13  O1  HQH D 501     218.992 243.101 297.754  1.00 20.76    -0.219 OA
BRANCH  12  14
HETATM   14  C9  HQH D 501     220.770 242.234 299.069  1.00 20.76    -0.018 C 
HETATM   15  C14 HQH D 501     221.224 241.878 297.686  1.00 20.76     0.029 C 
HETATM   16  C16 HQH D 501     221.429 241.947 300.190  1.00 20.76    -0.032 C 
HETATM   17  C27 HQH D 501     222.730 241.211 300.295  1.00 20.76     0.030 C 
ENDBRANCH  12  14
ENDBRANCH  10  12
ENDBRANCH   9  10
ENDBRANCH   6   7
ENDBRANCH   4   5
ENDBRANCH   2   4
BRANCH   3  18
HETATM   18  C13 HQH D 501     221.243 252.093 299.929  1.00 20.76     0.071 C 
BRANCH  18  19
HETATM   19  C12 HQH D 501     221.411 253.405 299.202  1.00 20.76     0.065 A 
HETATM   20  C19 HQH D 501     222.177 253.567 298.031  1.00 20.76     0.033 A 
HETATM   21  C23 HQH D 501     222.258 254.861 297.440  1.00 20.76     0.218 A 
HETATM   22  C28 HQH D 501     222.914 252.444 297.347  1.00 20.76     0.036 C 
HETATM   23  O4  HQH D 501     222.941 255.014 296.397  1.00 20.76    -0.285 OA
HETATM   24  C25 HQH D 501     221.581 255.976 298.049  1.00 20.76     0.174 A 
HETATM   25  C24 HQH D 501     220.837 255.758 299.210  1.00 20.76     0.204 A 
HETATM   26  N5  HQH D 501     220.775 254.497 299.744  1.00 20.76    -0.225 NA
BRANCH  24  27
HETATM   27  O3  HQH D 501     221.551 257.271 297.600  1.00 20.76    -0.322 OA
HETATM   28  C30 HQH D 501     220.737 257.674 296.503  1.00 20.76     0.182 C 
ENDBRANCH  24  27
BRANCH  25  29
HETATM   29  O2  HQH D 501     220.206 256.824 299.745  1.00 20.76    -0.310 OA
HETATM   30  C29 HQH D 501     218.775 256.991 299.807  1.00 20.76     0.183 C 
ENDBRANCH  25  29
ENDBRANCH  18  19
ENDBRANCH   3  18
TORSDOF 10
ENDMDL
MODEL 3
REMARK VINA RESULT:      -9.0      1.477      2.332
REMARK  10 active torsions:
REMARK  status: ('A' for Active; 'I' for Inactive)
REMARK    1  A    between atoms: C21_65925  and  C15_65939 
REMARK    2  A    between atoms: C24_65928  and  O2_65952 
REMARK    3  A    between atoms: C25_65929  and  O3_65953 
REMARK    4  A    between atoms: C11_65935  and  C18_65942 
REMARK    5  A    between atoms: C12_65936  and  C13_65937 
REMARK    6  A    between atoms: C13_65937  and  C20_65944 
REMARK    7  A    between atoms: C15_65939  and  C17_65941 
REMARK    8  A    between atoms: C6_65946  and  C7_65947 
REMARK    9  A    between atoms: C6_65946  and  C8_65948 
REMARK   10  A    between atoms: C7_65947  and  C9_65949 
ROOT
HETATM    1  C26 HQH D 501     224.085 250.106 298.573  1.00 20.76     0.026 C 
HETATM    2  C17 HQH D 501     223.112 250.011 297.445  1.00 20.76    -0.043 C 
HETATM    3  C20 HQH D 501     222.831 251.060 296.681  1.00 20.76    -0.028 C 
ENDROOT
BRANCH   2   4
HETATM    4  C15 HQH D 501     222.522 248.619 297.304  1.00 20.76     0.048 C 
BRANCH   4   5
HETATM    5  C21 HQH D 501     221.050 248.476 297.026  1.00 20.76    -0.022 C 
HETATM    6  C18 HQH D 501     220.202 247.621 297.586  1.00 20.76    -0.009 C 
BRANCH   6   7
HETATM    7  C11 HQH D 501     220.302 246.885 298.861  1.00 20.76    -0.026 C 
HETATM    8  C22 HQH D 501     220.925 247.551 300.009  1.00 20.76     0.031 C 
HETATM    9  C8  HQH D 501     219.762 245.630 298.944  1.00 20.76    -0.028 C 
BRANCH   9  10
HETATM   10  C6  HQH D 501     219.732 244.632 300.075  1.00 20.76     0.056 C 
HETATM   11  C10 HQH D 501     218.309 244.582 300.644  1.00 20.76     0.008 C 
BRANCH  10  12
HETATM   12  C7  HQH D 501     220.230 243.247 299.637  1.00 20.76     0.174 C 
HETATM   13  O1  HQH D 501     220.127 243.133 298.230  1.00 20.76    -0.219 OA
BRANCH  12  14
HETATM   14  C9  HQH D 501     221.654 242.910 300.035  1.00 20.76    -0.018 C 
HETATM   15  C14 HQH D 501     221.884 241.439 300.209  1.00 20.76     0.029 C 
HETATM   16  C16 HQH D 501     222.569 243.857 300.230  1.00 20.76    -0.032 C 
HETATM   17  C27 HQH D 501     223.987 243.650 300.668  1.00 20.76     0.030 C 
ENDBRANCH  12  14
ENDBRANCH  10  12
ENDBRANCH   9  10
ENDBRANCH   6   7
ENDBRANCH   4   5
ENDBRANCH   2   4
BRANCH   3  18
HETATM   18  C13 HQH D 501     223.444 252.437 296.695  1.00 20.76     0.071 C 
BRANCH  18  19
HETATM   19  C12 HQH D 501     222.646 253.523 297.375  1.00 20.76     0.065 A 
HETATM   20  C19 HQH D 501     222.672 254.879 296.993  1.00 20.76     0.033 A 
HETATM   21  C23 HQH D 501     221.872 255.809 297.718  1.00 20.76     0.218 A 
HETATM   22  C28 HQH D 501     223.490 255.413 295.846  1.00 20.76     0.036 C 
HETATM   23  O4  HQH D 501     221.892 257.019 297.385  1.00 20.76    -0.285 OA
HETATM   24  C25 HQH D 501     221.072 255.361 298.828  1.00 20.76     0.174 A 
HETATM   25  C24 HQH D 501     221.086 254.006 299.163  1.00 20.76     0.204 A 
HETATM   26  N5  HQH D 501     221.861 253.139 298.437  1.00 20.76    -0.225 NA
BRANCH  24  27
HETATM   27  O3  HQH D 501     220.245 256.123 299.612  1.00 20.76    -0.322 OA
HETATM   28  C30 HQH D 501     219.064 256.732 299.099  1.00 20.76     0.182 C 
ENDBRANCH  24  27
BRANCH  25  29
HETATM   29  O2  HQH D 501     220.314 253.621 300.201  1.00 20.76    -0.310 OA
HETATM   30  C29 HQH D 501     219.948 252.259 300.497  1.00 20.76     0.183 C 
ENDBRANCH  25  29
ENDBRANCH  18  19
ENDBRANCH   3  18
TORSDOF 10
ENDMDL
MODEL 4
REMARK VINA RESULT:      -8.9      1.339      1.864
REMARK  10 active torsions:
REMARK  status: ('A' for Active; 'I' for Inactive)
REMARK    1  A    between atoms: C21_65925  and  C15_65939 
REMARK    2  A    between atoms: C24_65928  and  O2_65952 
REMARK    3  A    between atoms: C25_65929  and  O3_65953 
REMARK    4  A    between atoms: C11_65935  and  C18_65942 
REMARK    5  A    between atoms: C12_65936  and  C13_65937 
REMARK    6  A    between atoms: C13_65937  and  C20_65944 
REMARK    7  A    between atoms: C15_65939  and  C17_65941 
REMARK    8  A    between atoms: C6_65946  and  C7_65947 
REMARK    9  A    between atoms: C6_65946  and  C8_65948 
REMARK   10  A    between atoms: C7_65947  and  C9_65949 
ROOT
HETATM    1  C26 HQH D 501     218.234 250.214 298.889  1.00 20.76     0.026 C 
HETATM    2  C17 HQH D 501     219.598 249.731 298.517  1.00 20.76    -0.043 C 
HETATM    3  C20 HQH D 501     220.693 250.348 298.946  1.00 20.76    -0.028 C 
ENDROOT
BRANCH   2   4
HETATM    4  C15 HQH D 501     219.556 248.500 297.630  1.00 20.76     0.048 C 
BRANCH   4   5
HETATM    5  C21 HQH D 501     220.849 247.842 297.235  1.00 20.76    -0.022 C 
HETATM    6  C18 HQH D 501     221.596 247.024 297.968  1.00 20.76    -0.009 C 
BRANCH   6   7
HETATM    7  C11 HQH D 501     221.233 246.209 299.144  1.00 20.76    -0.026 C 
HETATM    8  C22 HQH D 501     221.079 246.877 300.440  1.00 20.76     0.031 C 
HETATM    9  C8  HQH D 501     220.998 244.872 298.974  1.00 20.76    -0.028 C 
BRANCH   9  10
HETATM   10  C6  HQH D 501     220.648 243.788 299.964  1.00 20.76     0.056 C 
HETATM   11  C10 HQH D 501     219.170 243.422 299.782  1.00 20.76     0.008 C 
BRANCH  10  12
HETATM   12  C7  HQH D 501     221.569 242.566 299.835  1.00 20.76     0.174 C 
HETATM   13  O1  HQH D 501     222.245 242.617 298.592  1.00 20.76    -0.219 OA
BRANCH  12  14
HETATM   14  C9  HQH D 501     222.604 242.412 300.931  1.00 20.76    -0.018 C 
HETATM   15  C14 HQH D 501     223.733 243.390 300.816  1.00 20.76     0.029 C 
HETATM   16  C16 HQH D 501     222.500 241.469 301.865  1.00 20.76    -0.032 C 
HETATM   17  C27 HQH D 501     223.479 241.191 302.965  1.00 20.76     0.030 C 
ENDBRANCH  12  14
ENDBRANCH  10  12
ENDBRANCH   9  10
ENDBRANCH   6   7
ENDBRANCH   4   5
ENDBRANCH   2   4
BRANCH   3  18
HETATM   18  C13 HQH D 501     220.817 251.507 299.902  1.00 20.76     0.071 C 
BRANCH  18  19
HETATM   19  C12 HQH D 501     221.150 252.848 299.296  1.00 20.76     0.065 A 
HETATM   20  C19 HQH D 501     222.037 253.029 298.216  1.00 20.76     0.033 A 
HETATM   21  C23 HQH D 501     222.270 254.350 297.735  1.00 20.76     0.218 A 
HETATM   22  C28 HQH D 501     222.752 251.900 297.518  1.00 20.76     0.036 C 
HETATM   23  O4  HQH D 501     223.060 254.518 296.774  1.00 20.76    -0.285 OA
HETATM   24  C25 HQH D 501     221.621 255.470 298.362  1.00 20.76     0.174 A 
HETATM   25  C24 HQH D 501     220.753 255.233 299.431  1.00 20.76     0.204 A 
HETATM   26  N5  HQH D 501     220.547 253.948 299.860  1.00 20.76    -0.225 NA
BRANCH  24  27
HETATM   27  O3  HQH D 501     221.729 256.792 298.013  1.00 20.76    -0.322 OA
HETATM   28  C30 HQH D 501     221.118 257.317 296.838  1.00 20.76     0.182 C 
ENDBRANCH  24  27
BRANCH  25  29
HETATM   29  O2  HQH D 501     220.153 256.308 299.985  1.00 20.76    -0.310 OA
HETATM   30  C29 HQH D 501     218.780 256.691 299.766  1.00 20.76     0.183 C 
ENDBRANCH  25  29
ENDBRANCH  18  19
ENDBRANCH   3  18
TORSDOF 10
ENDMDL
MODEL 5
REMARK VINA RESULT:      -8.7      2.306     10.935
REMARK  10 active torsions:
REMARK  status: ('A' for Active; 'I' for Inactive)
REMARK    1  A    between atoms: C21_65925  and  C15_65939 
REMARK    2  A    between atoms: C24_65928  and  O2_65952 
REMARK    3  A    between atoms: C25_65929  and  O3_65953 
REMARK    4  A    between atoms: C11_65935  and  C18_65942 
REMARK    5  A    between atoms: C12_65936  and  C13_65937 
REMARK    6  A    between atoms: C13_65937  and  C20_65944 
REMARK    7  A    between atoms: C15_65939  and  C17_65941 
REMARK    8  A    between atoms: C6_65946  and  C7_65947 
REMARK    9  A    between atoms: C6_65946  and  C8_65948 
REMARK   10  A    between atoms: C7_65947  and  C9_65949 
ROOT
HETATM    1  C26 HQH D 501     218.054 250.067 298.800  1.00 20.76     0.026 C 
HETATM    2  C17 HQH D 501     219.510 250.351 298.975  1.00 20.76    -0.043 C 
HETATM    3  C20 HQH D 501     220.439 249.546 298.474  1.00 20.76    -0.028 C 
ENDROOT
BRANCH   2   4
HETATM    4  C15 HQH D 501     219.761 251.624 299.762  1.00 20.76     0.048 C 
BRANCH   4   5
HETATM    5  C21 HQH D 501     221.166 251.954 300.186  1.00 20.76    -0.022 C 
HETATM    6  C18 HQH D 501     221.996 252.827 299.626  1.00 20.76    -0.009 C 
BRANCH   6   7
HETATM    7  C11 HQH D 501     221.706 253.980 298.751  1.00 20.76    -0.026 C 
HETATM    8  C22 HQH D 501     222.391 254.069 297.457  1.00 20.76     0.031 C 
HETATM    9  C8  HQH D 501     220.770 254.894 299.150  1.00 20.76    -0.028 C 
BRANCH   9  10
HETATM   10  C6  HQH D 501     220.285 256.170 298.507  1.00 20.76     0.056 C 
HETATM   11  C10 HQH D 501     218.753 256.141 298.461  1.00 20.76     0.008 C 
BRANCH  10  12
HETATM   12  C7  HQH D 501     220.821 257.419 299.223  1.00 20.76     0.174 C 
HETATM   13  O1  HQH D 501     222.129 257.701 298.762  1.00 20.76    -0.219 OA
BRANCH  12  14
HETATM   14  C9  HQH D 501     219.983 258.671 299.063  1.00 20.76    -0.018 C 
HETATM   15  C14 HQH D 501     220.193 259.355 297.746  1.00 20.76     0.029 C 
HETATM   16  C16 HQH D 501     219.177 259.103 300.031  1.00 20.76    -0.032 C 
HETATM   17  C27 HQH D 501     218.339 260.345 300.006  1.00 20.76     0.030 C 
ENDBRANCH  12  14
ENDBRANCH  10  12
ENDBRANCH   9  10
ENDBRANCH   6   7
ENDBRANCH   4   5
ENDBRANCH   2   4
BRANCH   3  18
HETATM   18  C13 HQH D 501     220.270 248.327 297.603  1.00 20.76     0.071 C 
BRANCH  18  19
HETATM   19  C12 HQH D 501     220.688 247.007 298.204  1.00 20.76     0.065 A 
HETATM   20  C19 HQH D 501     221.807 246.264 297.778  1.00 20.76     0.033 A 
HETATM   21  C23 HQH D 501     222.096 245.029 298.426  1.00 20.76     0.218 A 
HETATM   22  C28 HQH D 501     222.739 246.705 296.678  1.00 20.76     0.036 C 
HETATM   23  O4  HQH D 501     223.091 244.361 298.051  1.00 20.76    -0.285 OA
HETATM   24  C25 HQH D 501     221.241 244.551 299.480  1.00 20.76     0.174 A 
HETATM   25  C24 HQH D 501     220.144 245.327 299.861  1.00 20.76     0.204 A 
HETATM   26  N5  HQH D 501     219.904 246.514 299.220  1.00 20.76    -0.225 NA
BRANCH  24  27
HETATM   27  O3  HQH D 501     221.388 243.397 300.206  1.00 20.76    -0.322 OA
HETATM   28  C30 HQH D 501     221.030 242.122 299.681  1.00 20.76     0.182 C 
ENDBRANCH  24  27
BRANCH  25  29
HETATM   29  O2  HQH D 501     219.372 244.852 300.861  1.00 20.76    -0.310 OA
HETATM   30  C29 HQH D 501     218.015 244.390 300.708  1.00 20.76     0.183 C 
ENDBRANCH  25  29
ENDBRANCH  18  19
ENDBRANCH   3  18
TORSDOF 10
ENDMDL
MODEL 6
REMARK VINA RESULT:      -8.7      3.633      6.383
REMARK  10 active torsions:
REMARK  status: ('A' for Active; 'I' for Inactive)
REMARK    1  A    between atoms: C21_65925  and  C15_65939 
REMARK    2  A    between atoms: C24_65928  and  O2_65952 
REMARK    3  A    between atoms: C25_65929  and  O3_65953 
REMARK    4  A    between atoms: C11_65935  and  C18_65942 
REMARK    5  A    between atoms: C12_65936  and  C13_65937 
REMARK    6  A    between atoms: C13_65937  and  C20_65944 
REMARK    7  A    between atoms: C15_65939  and  C17_65941 
REMARK    8  A    between atoms: C6_65946  and  C7_65947 
REMARK    9  A    between atoms: C6_65946  and  C8_65948 
REMARK   10  A    between atoms: C7_65947  and  C9_65949 
ROOT
HETATM    1  C26 HQH D 501     220.019 254.958 300.162  1.00 20.76     0.026 C 
HETATM    2  C17 HQH D 501     220.797 255.851 299.253  1.00 20.76    -0.043 C 
HETATM    3  C20 HQH D 501     220.332 257.038 298.881  1.00 20.76    -0.028 C 
ENDROOT
BRANCH   2   4
HETATM    4  C15 HQH D 501     222.124 255.242 298.839  1.00 20.76     0.048 C 
BRANCH   4   5
HETATM    5  C21 HQH D 501     222.386 254.990 297.379  1.00 20.76    -0.022 C 
HETATM    6  C18 HQH D 501     222.838 253.873 296.820  1.00 20.76    -0.009 C 
BRANCH   6   7
HETATM    7  C11 HQH D 501     222.825 252.487 297.329  1.00 20.76    -0.026 C 
HETATM    8  C22 HQH D 501     223.679 251.491 296.675  1.00 20.76     0.031 C 
HETATM    9  C8  HQH D 501     222.062 252.194 298.426  1.00 20.76    -0.028 C 
BRANCH   9  10
HETATM   10  C6  HQH D 501     221.817 250.893 299.151  1.00 20.76     0.056 C 
HETATM   11  C10 HQH D 501     222.798 250.798 300.326  1.00 20.76     0.008 C 
BRANCH  10  12
HETATM   12  C7  HQH D 501     220.357 250.746 299.601  1.00 20.76     0.174 C 
HETATM   13  O1  HQH D 501     219.683 251.978 299.417  1.00 20.76    -0.219 OA
BRANCH  12  14
HETATM   14  C9  HQH D 501     219.563 249.664 298.896  1.00 20.76    -0.018 C 
HETATM   15  C14 HQH D 501     218.117 250.015 298.720  1.00 20.76     0.029 C 
HETATM   16  C16 HQH D 501     220.126 248.519 298.516  1.00 20.76    -0.032 C 
HETATM   17  C27 HQH D 501     219.437 247.362 297.857  1.00 20.76     0.030 C 
ENDBRANCH  12  14
ENDBRANCH  10  12
ENDBRANCH   9  10
ENDBRANCH   6   7
ENDBRANCH   4   5
ENDBRANCH   2   4
BRANCH   3  18
HETATM   18  C13 HQH D 501     219.079 257.749 299.326  1.00 20.76     0.071 C 
BRANCH  18  19
HETATM   19  C12 HQH D 501     219.120 259.257 299.315  1.00 20.76     0.065 A 
HETATM   20  C19 HQH D 501     219.886 260.020 298.411  1.00 20.76     0.033 A 
HETATM   21  C23 HQH D 501     219.841 261.441 298.505  1.00 20.76     0.218 A 
HETATM   22  C28 HQH D 501     220.749 259.423 297.329  1.00 20.76     0.036 C 
HETATM   23  O4  HQH D 501     220.522 262.127 297.704  1.00 20.76    -0.285 OA
HETATM   24  C25 HQH D 501     219.039 262.071 299.521  1.00 20.76     0.174 A 
HETATM   25  C24 HQH D 501     218.301 261.266 300.392  1.00 20.76     0.204 A 
HETATM   26  N5  HQH D 501     218.363 259.903 300.264  1.00 20.76    -0.225 NA
BRANCH  24  27
HETATM   27  O3  HQH D 501     218.881 263.416 299.734  1.00 20.76    -0.322 OA
HETATM   28  C30 HQH D 501     218.182 264.251 298.816  1.00 20.76     0.182 C 
ENDBRANCH  24  27
BRANCH  25  29
HETATM   29  O2  HQH D 501     217.552 261.893 301.323  1.00 20.76    -0.310 OA
HETATM   30  C29 HQH D 501     216.160 262.234 301.169  1.00 20.76     0.183 C 
ENDBRANCH  25  29
ENDBRANCH  18  19
ENDBRANCH   3  18
TORSDOF 10
ENDMDL
MODEL 7
REMARK VINA RESULT:      -8.6      2.758     11.324
REMARK  10 active torsions:
REMARK  status: ('A' for Active; 'I' for Inactive)
REMARK    1  A    between atoms: C21_65925  and  C15_65939 
REMARK    2  A    between atoms: C24_65928  and  O2_65952 
REMARK    3  A    between atoms: C25_65929  and  O3_65953 
REMARK    4  A    between atoms: C11_65935  and  C18_65942 
REMARK    5  A    between atoms: C12_65936  and  C13_65937 
REMARK    6  A    between atoms: C13_65937  and  C20_65944 
REMARK    7  A    between atoms: C15_65939  and  C17_65941 
REMARK    8  A    between atoms: C6_65946  and  C7_65947 
REMARK    9  A    between atoms: C6_65946  and  C8_65948 
REMARK   10  A    between atoms: C7_65947  and  C9_65949 
ROOT
HETATM    1  C26 HQH D 501     220.538 249.007 297.853  1.00 20.76     0.026 C 
HETATM    2  C17 HQH D 501     222.018 248.894 297.695  1.00 20.76    -0.043 C 
HETATM    3  C20 HQH D 501     222.586 247.781 297.247  1.00 20.76    -0.028 C 
ENDROOT
BRANCH   2   4
HETATM    4  C15 HQH D 501     222.742 250.166 298.097  1.00 20.76     0.048 C 
BRANCH   4   5
HETATM    5  C21 HQH D 501     222.811 250.536 299.554  1.00 20.76    -0.022 C 
HETATM    6  C18 HQH D 501     222.360 251.646 300.128  1.00 20.76    -0.009 C 
BRANCH   6   7
HETATM    7  C11 HQH D 501     221.347 252.611 299.658  1.00 20.76    -0.026 C 
HETATM    8  C22 HQH D 501     219.941 252.194 299.627  1.00 20.76     0.031 C 
HETATM    9  C8  HQH D 501     221.746 253.876 299.322  1.00 20.76    -0.028 C 
BRANCH   9  10
HETATM   10  C6  HQH D 501     220.970 255.056 298.787  1.00 20.76     0.056 C 
HETATM   11  C10 HQH D 501     220.227 255.718 299.954  1.00 20.76     0.008 C 
BRANCH  10  12
HETATM   12  C7  HQH D 501     221.871 256.047 298.035  1.00 20.76     0.174 C 
HETATM   13  O1  HQH D 501     222.422 255.411 296.897  1.00 20.76    -0.219 OA
BRANCH  12  14
HETATM   14  C9  HQH D 501     221.195 257.326 297.582  1.00 20.76    -0.018 C 
HETATM   15  C14 HQH D 501     219.981 257.083 296.738  1.00 20.76     0.029 C 
HETATM   16  C16 HQH D 501     221.681 258.524 297.898  1.00 20.76    -0.032 C 
HETATM   17  C27 HQH D 501     221.130 259.851 297.472  1.00 20.76     0.030 C 
ENDBRANCH  12  14
ENDBRANCH  10  12
ENDBRANCH   9  10
ENDBRANCH   6   7
ENDBRANCH   4   5
ENDBRANCH   2   4
BRANCH   3  18
HETATM   18  C13 HQH D 501     221.933 246.521 296.737  1.00 20.76     0.071 C 
BRANCH  18  19
HETATM   19  C12 HQH D 501     221.949 245.331 297.665  1.00 20.76     0.065 A 
HETATM   20  C19 HQH D 501     220.840 244.905 298.423  1.00 20.76     0.033 A 
HETATM   21  C23 HQH D 501     220.984 243.765 299.266  1.00 20.76     0.218 A 
HETATM   22  C28 HQH D 501     219.491 245.576 298.388  1.00 20.76     0.036 C 
HETATM   23  O4  HQH D 501     220.001 243.381 299.945  1.00 20.76    -0.285 OA
HETATM   24  C25 HQH D 501     222.249 243.083 299.346  1.00 20.76     0.174 A 
HETATM   25  C24 HQH D 501     223.315 243.550 298.574  1.00 20.76     0.204 A 
HETATM   26  N5  HQH D 501     223.136 244.644 297.768  1.00 20.76    -0.225 NA
BRANCH  24  27
HETATM   27  O3  HQH D 501     222.545 241.973 300.095  1.00 20.76    -0.322 OA
HETATM   28  C30 HQH D 501     222.617 242.016 301.517  1.00 20.76     0.182 C 
ENDBRANCH  24  27
BRANCH  25  29
HETATM   29  O2  HQH D 501     224.482 242.878 298.667  1.00 20.76    -0.310 OA
HETATM   30  C29 HQH D 501     225.018 242.012 297.646  1.00 20.76     0.183 C 
ENDBRANCH  25  29
ENDBRANCH  18  19
ENDBRANCH   3  18
TORSDOF 10
ENDMDL
MODEL 8
REMARK VINA RESULT:      -8.6      3.426      6.107
REMARK  10 active torsions:
REMARK  status: ('A' for Active; 'I' for Inactive)
REMARK    1  A    between atoms: C21_65925  and  C15_65939 
REMARK    2  A    between atoms: C24_65928  and  O2_65952 
REMARK    3  A    between atoms: C25_65929  and  O3_65953 
REMARK    4  A    between atoms: C11_65935  and  C18_65942 
REMARK    5  A    between atoms: C12_65936  and  C13_65937 
REMARK    6  A    between atoms: C13_65937  and  C20_65944 
REMARK    7  A    between atoms: C15_65939  and  C17_65941 
REMARK    8  A    between atoms: C6_65946  and  C7_65947 
REMARK    9  A    between atoms: C6_65946  and  C8_65948 
REMARK   10  A    between atoms: C7_65947  and  C9_65949 
ROOT
HETATM    1  C26 HQH D 501     222.537 255.775 296.679  1.00 20.76     0.026 C 
HETATM    2  C17 HQH D 501     221.622 255.665 297.855  1.00 20.76    -0.043 C 
HETATM    3  C20 HQH D 501     220.841 256.673 298.223  1.00 20.76    -0.028 C 
ENDROOT
BRANCH   2   4
HETATM    4  C15 HQH D 501     221.708 254.308 298.530  1.00 20.76     0.048 C 
BRANCH   4   5
HETATM    5  C21 HQH D 501     220.616 253.896 299.479  1.00 20.76    -0.022 C 
HETATM    6  C18 HQH D 501     220.366 252.676 299.942  1.00 20.76    -0.009 C 
BRANCH   6   7
HETATM    7  C11 HQH D 501     221.249 251.496 300.026  1.00 20.76    -0.026 C 
HETATM    8  C22 HQH D 501     222.495 251.605 300.790  1.00 20.76     0.031 C 
HETATM    9  C8  HQH D 501     220.847 250.328 299.438  1.00 20.76    -0.028 C 
BRANCH   9  10
HETATM   10  C6  HQH D 501     221.527 248.985 299.324  1.00 20.76     0.056 C 
HETATM   11  C10 HQH D 501     220.473 247.888 299.519  1.00 20.76     0.008 C 
BRANCH  10  12
HETATM   12  C7  HQH D 501     222.285 248.831 297.998  1.00 20.76     0.174 C 
HETATM   13  O1  HQH D 501     221.357 248.680 296.940  1.00 20.76    -0.219 OA
BRANCH  12  14
HETATM   14  C9  HQH D 501     223.221 249.971 297.646  1.00 20.76    -0.018 C 
HETATM   15  C14 HQH D 501     224.469 249.983 298.475  1.00 20.76     0.029 C 
HETATM   16  C16 HQH D 501     222.913 250.866 296.710  1.00 20.76    -0.032 C 
HETATM   17  C27 HQH D 501     223.732 252.055 296.310  1.00 20.76     0.030 C 
ENDBRANCH  12  14
ENDBRANCH  10  12
ENDBRANCH   9  10
ENDBRANCH   6   7
ENDBRANCH   4   5
ENDBRANCH   2   4
BRANCH   3  18
HETATM   18  C13 HQH D 501     220.628 258.005 297.549  1.00 20.76     0.071 C 
BRANCH  18  19
HETATM   19  C12 HQH D 501     219.939 259.071 298.366  1.00 20.76     0.065 A 
HETATM   20  C19 HQH D 501     219.223 258.817 299.553  1.00 20.76     0.033 A 
HETATM   21  C23 HQH D 501     218.615 259.912 300.232  1.00 20.76     0.218 A 
HETATM   22  C28 HQH D 501     219.070 257.448 300.165  1.00 20.76     0.036 C 
HETATM   23  O4  HQH D 501     217.974 259.693 301.290  1.00 20.76    -0.285 OA
HETATM   24  C25 HQH D 501     218.720 261.243 299.695  1.00 20.76     0.174 A 
HETATM   25  C24 HQH D 501     219.441 261.436 298.514  1.00 20.76     0.204 A 
HETATM   26  N5  HQH D 501     220.020 260.360 297.894  1.00 20.76    -0.225 NA
BRANCH  24  27
HETATM   27  O3  HQH D 501     218.206 262.395 300.231  1.00 20.76    -0.322 OA
HETATM   28  C30 HQH D 501     216.818 262.709 300.161  1.00 20.76     0.182 C 
ENDBRANCH  24  27
BRANCH  25  29
HETATM   29  O2  HQH D 501     219.529 262.699 298.047  1.00 20.76    -0.310 OA
HETATM   30  C29 HQH D 501     220.689 263.547 298.173  1.00 20.76     0.183 C 
ENDBRANCH  25  29
ENDBRANCH  18  19
ENDBRANCH   3  18
TORSDOF 10
ENDMDL
MODEL 9
REMARK VINA RESULT:      -8.5      4.107     12.289
REMARK  10 active torsions:
REMARK  status: ('A' for Active; 'I' for Inactive)
REMARK    1  A    between atoms: C21_65925  and  C15_65939 
REMARK    2  A    between atoms: C24_65928  and  O2_65952 
REMARK    3  A    between atoms: C25_65929  and  O3_65953 
REMARK    4  A    between atoms: C11_65935  and  C18_65942 
REMARK    5  A    between atoms: C12_65936  and  C13_65937 
REMARK    6  A    between atoms: C13_65937  and  C20_65944 
REMARK    7  A    between atoms: C15_65939  and  C17_65941 
REMARK    8  A    between atoms: C6_65946  and  C7_65947 
REMARK    9  A    between atoms: C6_65946  and  C8_65948 
REMARK   10  A    between atoms: C7_65947  and  C9_65949 
ROOT
HETATM    1  C26 HQH D 501     221.477 256.910 296.636  1.00 20.76     0.026 C 
HETATM    2  C17 HQH D 501     221.646 256.516 298.067  1.00 20.76    -0.043 C 
HETATM    3  C20 HQH D 501     222.052 255.299 298.408  1.00 20.76    -0.028 C 
ENDROOT
BRANCH   2   4
HETATM    4  C15 HQH D 501     221.305 257.645 299.023  1.00 20.76     0.048 C 
BRANCH   4   5
HETATM    5  C21 HQH D 501     219.968 257.637 299.712  1.00 20.76    -0.022 C 
HETATM    6  C18 HQH D 501     219.165 258.673 299.930  1.00 20.76    -0.009 C 
BRANCH   6   7
HETATM    7  C11 HQH D 501     219.107 259.984 299.254  1.00 20.76    -0.026 C 
HETATM    8  C22 HQH D 501     219.608 260.089 297.880  1.00 20.76     0.031 C 
HETATM    9  C8  HQH D 501     218.536 261.041 299.910  1.00 20.76    -0.028 C 
BRANCH   9  10
HETATM   10  C6  HQH D 501     218.359 262.485 299.508  1.00 20.76     0.056 C 
HETATM   11  C10 HQH D 501     216.862 262.814 299.523  1.00 20.76     0.008 C 
BRANCH  10  12
HETATM   12  C7  HQH D 501     219.171 263.437 300.398  1.00 20.76     0.174 C 
HETATM   13  O1  HQH D 501     219.490 262.786 301.615  1.00 20.76    -0.219 OA
BRANCH  12  14
HETATM   14  C9  HQH D 501     220.458 263.959 299.790  1.00 20.76    -0.018 C 
HETATM   15  C14 HQH D 501     220.570 263.680 298.322  1.00 20.76     0.029 C 
HETATM   16  C16 HQH D 501     221.383 264.571 300.527  1.00 20.76    -0.032 C 
HETATM   17  C27 HQH D 501     222.707 265.085 300.049  1.00 20.76     0.030 C 
ENDBRANCH  12  14
ENDBRANCH  10  12
ENDBRANCH   9  10
ENDBRANCH   6   7
ENDBRANCH   4   5
ENDBRANCH   2   4
BRANCH   3  18
HETATM   18  C13 HQH D 501     222.501 254.164 297.522  1.00 20.76     0.071 C 
BRANCH  18  19
HETATM   19  C12 HQH D 501     222.194 252.769 298.007  1.00 20.76     0.065 A 
HETATM   20  C19 HQH D 501     222.800 251.604 297.496  1.00 20.76     0.033 A 
HETATM   21  C23 HQH D 501     222.422 250.342 298.039  1.00 20.76     0.218 A 
HETATM   22  C28 HQH D 501     223.844 251.607 296.410  1.00 20.76     0.036 C 
HETATM   23  O4  HQH D 501     222.956 249.299 297.588  1.00 20.76    -0.285 OA
HETATM   24  C25 HQH D 501     221.425 250.271 299.075  1.00 20.76     0.174 A 
HETATM   25  C24 HQH D 501     220.856 251.458 299.543  1.00 20.76     0.204 A 
HETATM   26  N5  HQH D 501     221.252 252.654 299.003  1.00 20.76    -0.225 NA
BRANCH  24  27
HETATM   27  O3  HQH D 501     220.964 249.144 299.705  1.00 20.76    -0.322 OA
HETATM   28  C30 HQH D 501     220.032 248.261 299.090  1.00 20.76     0.182 C 
ENDBRANCH  24  27
BRANCH  25  29
HETATM   29  O2  HQH D 501     219.935 251.354 300.523  1.00 20.76    -0.310 OA
HETATM   30  C29 HQH D 501     219.432 252.457 301.304  1.00 20.76     0.183 C 
ENDBRANCH  25  29
ENDBRANCH  18  19
ENDBRANCH   3  18
TORSDOF 10
ENDMDL
MODEL 10
REMARK VINA RESULT:      -8.5      2.639     11.066
REMARK  10 active torsions:
REMARK  status: ('A' for Active; 'I' for Inactive)
REMARK    1  A    between atoms: C21_65925  and  C15_65939 
REMARK    2  A    between atoms: C24_65928  and  O2_65952 
REMARK    3  A    between atoms: C25_65929  and  O3_65953 
REMARK    4  A    between atoms: C11_65935  and  C18_65942 
REMARK    5  A    between atoms: C12_65936  and  C13_65937 
REMARK    6  A    between atoms: C13_65937  and  C20_65944 
REMARK    7  A    between atoms: C15_65939  and  C17_65941 
REMARK    8  A    between atoms: C6_65946  and  C7_65947 
REMARK    9  A    between atoms: C6_65946  and  C8_65948 
REMARK   10  A    between atoms: C7_65947  and  C9_65949 
ROOT
HETATM    1  C26 HQH D 501     220.427 248.992 297.808  1.00 20.76     0.026 C 
HETATM    2  C17 HQH D 501     221.898 248.856 297.591  1.00 20.76    -0.043 C 
HETATM    3  C20 HQH D 501     222.429 247.734 297.121  1.00 20.76    -0.028 C 
ENDROOT
BRANCH   2   4
HETATM    4  C15 HQH D 501     222.657 250.117 297.964  1.00 20.76     0.048 C 
BRANCH   4   5
HETATM    5  C21 HQH D 501     222.787 250.486 299.416  1.00 20.76    -0.022 C 
HETATM    6  C18 HQH D 501     222.387 251.609 300.004  1.00 20.76    -0.009 C 
BRANCH   6   7
HETATM    7  C11 HQH D 501     221.383 252.599 299.568  1.00 20.76    -0.026 C 
HETATM    8  C22 HQH D 501     219.967 252.220 299.591  1.00 20.76     0.031 C 
HETATM    9  C8  HQH D 501     221.802 253.852 299.213  1.00 20.76    -0.028 C 
BRANCH   9  10
HETATM   10  C6  HQH D 501     221.039 255.050 298.703  1.00 20.76     0.056 C 
HETATM   11  C10 HQH D 501     220.319 255.708 299.887  1.00 20.76     0.008 C 
BRANCH  10  12
HETATM   12  C7  HQH D 501     221.946 256.038 297.954  1.00 20.76     0.174 C 
HETATM   13  O1  HQH D 501     222.498 255.400 296.818  1.00 20.76    -0.219 OA
BRANCH  12  14
HETATM   14  C9  HQH D 501     221.278 257.320 297.499  1.00 20.76    -0.018 C 
HETATM   15  C14 HQH D 501     220.163 257.088 296.524  1.00 20.76     0.029 C 
HETATM   16  C16 HQH D 501     221.689 258.513 297.923  1.00 20.76    -0.032 C 
HETATM   17  C27 HQH D 501     221.139 259.844 297.510  1.00 20.76     0.030 C 
ENDBRANCH  12  14
ENDBRANCH  10  12
ENDBRANCH   9  10
ENDBRANCH   6   7
ENDBRANCH   4   5
ENDBRANCH   2   4
BRANCH   3  18
HETATM   18  C13 HQH D 501     221.737 246.484 296.639  1.00 20.76     0.071 C 
BRANCH  18  19
HETATM   19  C12 HQH D 501     221.812 245.280 297.545  1.00 20.76     0.065 A 
HETATM   20  C19 HQH D 501     222.762 244.248 297.410  1.00 20.76     0.033 A 
HETATM   21  C23 HQH D 501     222.727 243.161 298.331  1.00 20.76     0.218 A 
HETATM   22  C28 HQH D 501     223.835 244.226 296.352  1.00 20.76     0.036 C 
HETATM   23  O4  HQH D 501     223.569 242.237 298.216  1.00 20.76    -0.285 OA
HETATM   24  C25 HQH D 501     221.723 243.121 299.362  1.00 20.76     0.174 A 
HETATM   25  C24 HQH D 501     220.805 244.170 299.448  1.00 20.76     0.204 A 
HETATM   26  N5  HQH D 501     220.876 245.203 298.550  1.00 20.76    -0.225 NA
BRANCH  24  27
HETATM   27  O3  HQH D 501     221.564 242.158 300.325  1.00 20.76    -0.322 OA
HETATM   28  C30 HQH D 501     222.498 241.988 301.387  1.00 20.76     0.182 C 
ENDBRANCH  24  27
BRANCH  25  29
HETATM   29  O2  HQH D 501     219.887 244.104 300.434  1.00 20.76    -0.310 OA
HETATM   30  C29 HQH D 501     218.517 244.539 300.317  1.00 20.76     0.183 C 
ENDBRANCH  25  29
ENDBRANCH  18  19
ENDBRANCH   3  18
TORSDOF 10
ENDMDL
