MODEL 1
REMARK VINA RESULT:     -10.2      0.000      0.000
REMARK  7 active torsions:
REMARK  status: ('A' for Active; 'I' for Inactive)
REMARK    1  A    between atoms: N1_4  and  C3_9 
REMARK    2  A    between atoms: O1_5  and  C14_21 
REMARK    3  A    between atoms: O1_5  and  C15_22 
REMARK    4  A    between atoms: N2_7  and  C11_18 
REMARK    5  A    between atoms: C11_18  and  C12_19 
REMARK    6  A    between atoms: C12_19  and  C13_20 
REMARK    7  A    between atoms: C13_20  and  C14_21 
ROOT
HETATM    1  C11 9SC B 601     219.973 244.893 298.715  0.69 32.97     0.251 C 
ENDROOT
BRANCH   1   2
HETATM    2  N2  9SC B 601     221.023 244.238 299.196  0.69 32.89     0.141 N 
HETATM    3  C8  9SC B 601     221.828 243.846 298.186  0.69 32.62     0.274 C 
HETATM    4  C7  9SC B 601     223.144 243.379 298.732  0.69 32.12     0.137 C 
HETATM    5  N1  9SC B 601     222.910 242.451 299.817  0.69 32.72    -0.344 N 
HETATM    6  C10 9SC B 601     221.742 242.617 300.675  0.69 32.83     0.137 C 
HETATM    7  C9  9SC B 601     220.617 243.209 299.887  0.69 32.95     0.274 C 
BRANCH   5   8
HETATM    8  C3  9SC B 601     223.875 241.316 300.079  0.69 33.61     0.068 A 
HETATM    9  C2  9SC B 601     223.599 240.067 299.669  0.69 34.54     0.084 A 
HETATM   10 CL2  9SC B 601     222.090 239.705 298.798  0.69 36.63    -0.080 Cl
HETATM   11  C1  9SC B 601     224.581 238.949 299.946  0.69 33.25     0.070 A 
HETATM   12 CL1  9SC B 601     224.215 237.291 299.399  0.69 33.56    -0.081 Cl
HETATM   13  C6  9SC B 601     225.725 239.200 300.601  0.69 33.15     0.012 A 
HETATM   14  C5  9SC B 601     226.039 240.627 301.072  0.69 33.54     0.002 A 
HETATM   15  C4  9SC B 601     225.187 241.600 300.833  0.69 33.82     0.018 A 
ENDBRANCH   5   8
ENDBRANCH   1   2
BRANCH   1  16
HETATM   16  C12 9SC B 601     219.569 246.020 299.753  0.69 33.14     0.038 C 
BRANCH  16  17
HETATM   17  C13 9SC B 601     220.825 246.785 300.254  0.69 32.02     0.035 C 
BRANCH  17  18
HETATM   18  C14 9SC B 601     220.965 248.071 299.420  0.69 30.98     0.149 C 
BRANCH  18  19
HETATM   19  O1  9SC B 601     221.534 249.104 300.225  0.69 31.49    -0.331 OA
BRANCH  19  20
HETATM   20  C15 9SC B 601     221.734 250.331 299.548  0.69 31.02     0.096 A 
HETATM   21  C16 9SC B 601     222.677 250.390 298.385  0.69 30.63     0.024 A 
HETATM   22  C17 9SC B 601     222.880 251.581 297.719  0.69 30.77    -0.001 A 
HETATM   23  C18 9SC B 601     222.140 252.850 298.167  0.69 30.32    -0.004 A 
HETATM   24  C19 9SC B 601     221.320 252.796 299.175  0.69 30.31     0.081 A 
HETATM   25  C21 9SC B 601     222.405 254.194 297.367  0.69 30.44     0.036 C 
HETATM   26  N3  9SC B 601     220.595 253.976 299.637  0.69 30.27    -0.224 NA
HETATM   27  C20 9SC B 601     221.090 251.425 299.939  0.69 30.88     0.043 A 
HETATM   28  C23 9SC B 601     221.017 255.304 299.191  0.69 29.68     0.190 C 
HETATM   29  O2A 9SC B 601     220.356 256.416 299.609  0.69 29.13    -0.174 OA
HETATM   30  C22 9SC B 601     222.229 255.426 298.226  0.69 30.20     0.079 C 
ENDBRANCH  19  20
ENDBRANCH  18  19
ENDBRANCH  17  18
ENDBRANCH  16  17
ENDBRANCH   1  16
TORSDOF 7
ENDMDL
MODEL 2
REMARK VINA RESULT:     -10.2      2.421      3.963
REMARK  7 active torsions:
REMARK  status: ('A' for Active; 'I' for Inactive)
REMARK    1  A    between atoms: N1_4  and  C3_9 
REMARK    2  A    between atoms: O1_5  and  C14_21 
REMARK    3  A    between atoms: O1_5  and  C15_22 
REMARK    4  A    between atoms: N2_7  and  C11_18 
REMARK    5  A    between atoms: C11_18  and  C12_19 
REMARK    6  A    between atoms: C12_19  and  C13_20 
REMARK    7  A    between atoms: C13_20  and  C14_21 
ROOT
HETATM    1  C11 9SC B 601     220.962 249.255 298.371  0.69 32.97     0.251 C 
ENDROOT
BRANCH   1   2
HETATM    2  N2  9SC B 601     221.272 247.991 298.627  0.69 32.89     0.141 N 
HETATM    3  C8  9SC B 601     220.846 247.196 297.624  0.69 32.62     0.274 C 
HETATM    4  C7  9SC B 601     221.449 245.830 297.762  0.69 32.12     0.137 C 
HETATM    5  N1  9SC B 601     221.276 245.364 299.120  0.69 32.72    -0.344 N 
HETATM    6  C10 9SC B 601     221.288 246.320 300.221  0.69 32.83     0.137 C 
HETATM    7  C9  9SC B 601     220.734 247.631 299.760  0.69 32.95     0.274 C 
BRANCH   5   8
HETATM    8  C3  9SC B 601     221.094 243.890 299.410  0.69 33.61     0.068 A 
HETATM    9  C2  9SC B 601     222.144 243.112 299.719  0.69 34.54     0.084 A 
HETATM   10 CL2  9SC B 601     223.788 243.789 299.803  0.69 36.63    -0.080 Cl
HETATM   11  C1  9SC B 601     221.934 241.641 300.002  0.69 33.25     0.070 A 
HETATM   12 CL1  9SC B 601     223.329 240.608 300.415  0.69 33.56    -0.081 Cl
HETATM   13  C6  9SC B 601     220.703 241.110 299.944  0.69 33.15     0.012 A 
HETATM   14  C5  9SC B 601     219.503 241.999 299.588  0.69 33.54     0.002 A 
HETATM   15  C4  9SC B 601     219.682 243.278 299.341  0.69 33.82     0.018 A 
ENDBRANCH   5   8
ENDBRANCH   1   2
BRANCH   1  16
HETATM   16  C12 9SC B 601     219.413 249.454 298.635  0.69 33.14     0.038 C 
BRANCH  16  17
HETATM   17  C13 9SC B 601     219.138 250.829 299.303  0.69 32.02     0.035 C 
BRANCH  17  18
HETATM   18  C14 9SC B 601     220.455 251.328 299.926  0.69 30.98     0.149 C 
BRANCH  18  19
HETATM   19  O1  9SC B 601     220.248 252.612 300.518  0.69 31.49    -0.331 OA
BRANCH  19  20
HETATM   20  C15 9SC B 601     220.611 253.702 299.693  0.69 31.02     0.096 A 
HETATM   21  C16 9SC B 601     221.736 253.550 298.716  0.69 30.63     0.024 A 
HETATM   22  C17 9SC B 601     222.099 254.608 297.907  0.69 30.77    -0.001 A 
HETATM   23  C18 9SC B 601     221.349 255.945 298.006  0.69 30.32    -0.004 A 
HETATM   24  C19 9SC B 601     220.370 256.075 298.853  0.69 30.31     0.081 A 
HETATM   25  C21 9SC B 601     221.801 257.130 297.053  0.69 30.44     0.036 C 
HETATM   26  N3  9SC B 601     219.629 257.325 298.982  0.69 30.27    -0.224 NA
HETATM   27  C20 9SC B 601     219.958 254.856 299.781  0.69 30.88     0.043 A 
HETATM   28  C23 9SC B 601     220.176 258.553 298.402  0.69 29.68     0.190 C 
HETATM   29  O2A 9SC B 601     219.503 259.729 298.512  0.69 29.13    -0.174 OA
HETATM   30  C22 9SC B 601     221.537 258.492 297.654  0.69 30.20     0.079 C 
ENDBRANCH  19  20
ENDBRANCH  18  19
ENDBRANCH  17  18
ENDBRANCH  16  17
ENDBRANCH   1  16
TORSDOF 7
ENDMDL
MODEL 3
REMARK VINA RESULT:     -10.1      0.991      1.252
REMARK  7 active torsions:
REMARK  status: ('A' for Active; 'I' for Inactive)
REMARK    1  A    between atoms: N1_4  and  C3_9 
REMARK    2  A    between atoms: O1_5  and  C14_21 
REMARK    3  A    between atoms: O1_5  and  C15_22 
REMARK    4  A    between atoms: N2_7  and  C11_18 
REMARK    5  A    between atoms: C11_18  and  C12_19 
REMARK    6  A    between atoms: C12_19  and  C13_20 
REMARK    7  A    between atoms: C13_20  and  C14_21 
ROOT
HETATM    1  C11 9SC B 601     221.107 245.728 298.837  0.69 32.97     0.251 C 
ENDROOT
BRANCH   1   2
HETATM    2  N2  9SC B 601     222.009 244.865 299.290  0.69 32.89     0.141 N 
HETATM    3  C8  9SC B 601     222.718 244.353 298.262  0.69 32.62     0.274 C 
HETATM    4  C7  9SC B 601     223.918 243.620 298.783  0.69 32.12     0.137 C 
HETATM    5  N1  9SC B 601     223.509 242.724 299.843  0.69 32.72    -0.344 N 
HETATM    6  C10 9SC B 601     222.399 243.091 300.715  0.69 32.83     0.137 C 
HETATM    7  C9  9SC B 601     221.410 243.916 299.954  0.69 32.95     0.274 C 
BRANCH   5   8
HETATM    8  C3  9SC B 601     224.232 241.414 300.063  0.69 33.61     0.068 A 
HETATM    9  C2  9SC B 601     223.709 240.255 299.631  0.69 34.54     0.084 A 
HETATM   10 CL2  9SC B 601     222.148 240.221 298.778  0.69 36.63    -0.080 Cl
HETATM   11  C1  9SC B 601     224.452 238.958 299.867  0.69 33.25     0.070 A 
HETATM   12 CL1  9SC B 601     223.758 237.419 299.290  0.69 33.56    -0.081 Cl
HETATM   13  C6  9SC B 601     225.631 238.961 300.508  0.69 33.15     0.012 A 
HETATM   14  C5  9SC B 601     226.228 240.285 301.005  0.69 33.54     0.002 A 
HETATM   15  C4  9SC B 601     225.584 241.414 300.802  0.69 33.82     0.018 A 
ENDBRANCH   5   8
ENDBRANCH   1   2
BRANCH   1  16
HETATM   16  C12 9SC B 601     221.067 246.970 299.819  0.69 33.14     0.038 C 
BRANCH  16  17
HETATM   17  C13 9SC B 601     220.972 248.300 299.022  0.69 32.02     0.035 C 
BRANCH  17  18
HETATM   18  C14 9SC B 601     221.613 249.413 299.872  0.69 30.98     0.149 C 
BRANCH  18  19
HETATM   19  O1  9SC B 601     220.648 250.433 300.131  0.69 31.49    -0.331 OA
BRANCH  19  20
HETATM   20  C15 9SC B 601     220.968 251.696 299.577  0.69 31.02     0.096 A 
HETATM   21  C16 9SC B 601     222.029 251.796 298.524  0.69 30.63     0.024 A 
HETATM   22  C17 9SC B 601     222.349 253.021 297.978  0.69 30.77    -0.001 A 
HETATM   23  C18 9SC B 601     221.617 254.288 298.446  0.69 30.32    -0.004 A 
HETATM   24  C19 9SC B 601     220.694 254.199 299.358  0.69 30.31     0.081 A 
HETATM   25  C21 9SC B 601     222.019 255.673 297.786  0.69 30.44     0.036 C 
HETATM   26  N3  9SC B 601     219.972 255.374 299.835  0.69 30.27    -0.224 NA
HETATM   27  C20 9SC B 601     220.330 252.788 299.985  0.69 30.88     0.043 A 
HETATM   28  C23 9SC B 601     220.491 256.711 299.540  0.69 29.68     0.190 C 
HETATM   29  O2A 9SC B 601     219.835 257.819 299.975  0.69 29.13    -0.174 OA
HETATM   30  C22 9SC B 601     221.803 256.845 298.717  0.69 30.20     0.079 C 
ENDBRANCH  19  20
ENDBRANCH  18  19
ENDBRANCH  17  18
ENDBRANCH  16  17
ENDBRANCH   1  16
TORSDOF 7
ENDMDL
MODEL 4
REMARK VINA RESULT:     -10.1      1.883      2.838
REMARK  7 active torsions:
REMARK  status: ('A' for Active; 'I' for Inactive)
REMARK    1  A    between atoms: N1_4  and  C3_9 
REMARK    2  A    between atoms: O1_5  and  C14_21 
REMARK    3  A    between atoms: O1_5  and  C15_22 
REMARK    4  A    between atoms: N2_7  and  C11_18 
REMARK    5  A    between atoms: C11_18  and  C12_19 
REMARK    6  A    between atoms: C12_19  and  C13_20 
REMARK    7  A    between atoms: C13_20  and  C14_21 
ROOT
HETATM    1  C11 9SC B 601     220.261 247.322 298.793  0.69 32.97     0.251 C 
ENDROOT
BRANCH   1   2
HETATM    2  N2  9SC B 601     220.541 246.027 298.721  0.69 32.89     0.141 N 
HETATM    3  C8  9SC B 601     220.538 245.482 299.956  0.69 32.62     0.274 C 
HETATM    4  C7  9SC B 601     220.555 243.986 299.856  0.69 32.12     0.137 C 
HETATM    5  N1  9SC B 601     221.593 243.579 298.935  0.69 32.72    -0.344 N 
HETATM    6  C10 9SC B 601     221.922 244.425 297.794  0.69 32.83     0.137 C 
HETATM    7  C9  9SC B 601     221.702 245.862 298.149  0.69 32.95     0.274 C 
BRANCH   5   8
HETATM    8  C3  9SC B 601     222.332 242.275 299.137  0.69 33.61     0.068 A 
HETATM    9  C2  9SC B 601     223.435 242.218 299.902  0.69 34.54     0.084 A 
HETATM   10 CL2  9SC B 601     224.062 243.675 300.709  0.69 36.63    -0.080 Cl
HETATM   11  C1  9SC B 601     224.156 240.901 300.086  0.69 33.25     0.070 A 
HETATM   12 CL1  9SC B 601     225.620 240.825 301.105  0.69 33.56    -0.081 Cl
HETATM   13  C6  9SC B 601     223.701 239.790 299.487  0.69 33.15     0.012 A 
HETATM   14  C5  9SC B 601     222.443 239.856 298.610  0.69 33.54     0.002 A 
HETATM   15  C4  9SC B 601     221.814 240.999 298.448  0.69 33.82     0.018 A 
ENDBRANCH   5   8
ENDBRANCH   1   2
BRANCH   1  16
HETATM   16  C12 9SC B 601     220.962 247.915 300.084  0.69 33.14     0.038 C 
BRANCH  16  17
HETATM   17  C13 9SC B 601     221.667 249.261 299.760  0.69 32.02     0.035 C 
BRANCH  17  18
HETATM   18  C14 9SC B 601     220.593 250.264 299.304  0.69 30.98     0.149 C 
BRANCH  18  19
HETATM   19  O1  9SC B 601     220.537 251.357 300.223  0.69 31.49    -0.331 OA
BRANCH  19  20
HETATM   20  C15 9SC B 601     220.795 252.622 299.644  0.69 31.02     0.096 A 
HETATM   21  C16 9SC B 601     221.859 252.756 298.598  0.69 30.63     0.024 A 
HETATM   22  C17 9SC B 601     222.120 253.985 298.029  0.69 30.77    -0.001 A 
HETATM   23  C18 9SC B 601     221.318 255.221 298.464  0.69 30.32    -0.004 A 
HETATM   24  C19 9SC B 601     220.392 255.103 299.370  0.69 30.31     0.081 A 
HETATM   25  C21 9SC B 601     221.652 256.612 297.778  0.69 30.44     0.036 C 
HETATM   26  N3  9SC B 601     219.605 256.248 299.817  0.69 30.27    -0.224 NA
HETATM   27  C20 9SC B 601     220.098 253.687 300.024  0.69 30.88     0.043 A 
HETATM   28  C23 9SC B 601     220.056 257.603 299.497  0.69 29.68     0.190 C 
HETATM   29  O2A 9SC B 601     219.339 258.684 299.904  0.69 29.13    -0.174 OA
HETATM   30  C22 9SC B 601     221.366 257.789 298.682  0.69 30.20     0.079 C 
ENDBRANCH  19  20
ENDBRANCH  18  19
ENDBRANCH  17  18
ENDBRANCH  16  17
ENDBRANCH   1  16
TORSDOF 7
ENDMDL
MODEL 5
REMARK VINA RESULT:     -10.0      1.037      1.559
REMARK  7 active torsions:
REMARK  status: ('A' for Active; 'I' for Inactive)
REMARK    1  A    between atoms: N1_4  and  C3_9 
REMARK    2  A    between atoms: O1_5  and  C14_21 
REMARK    3  A    between atoms: O1_5  and  C15_22 
REMARK    4  A    between atoms: N2_7  and  C11_18 
REMARK    5  A    between atoms: C11_18  and  C12_19 
REMARK    6  A    between atoms: C12_19  and  C13_20 
REMARK    7  A    between atoms: C13_20  and  C14_21 
ROOT
HETATM    1  C11 9SC B 601     220.619 245.984 298.189  0.69 32.97     0.251 C 
ENDROOT
BRANCH   1   2
HETATM    2  N2  9SC B 601     221.141 244.787 298.427  0.69 32.89     0.141 N 
HETATM    3  C8  9SC B 601     221.226 244.574 299.757  0.69 32.62     0.274 C 
HETATM    4  C7  9SC B 601     221.528 243.130 300.026  0.69 32.12     0.137 C 
HETATM    5  N1  9SC B 601     222.637 242.710 299.197  0.69 32.72    -0.344 N 
HETATM    6  C10 9SC B 601     222.814 243.295 297.873  0.69 32.83     0.137 C 
HETATM    7  C9  9SC B 601     222.319 244.707 297.873  0.69 32.95     0.274 C 
BRANCH   5   8
HETATM    8  C3  9SC B 601     223.608 241.659 299.687  0.69 33.61     0.068 A 
HETATM    9  C2  9SC B 601     223.396 240.356 299.443  0.69 34.54     0.084 A 
HETATM   10 CL2  9SC B 601     221.967 239.819 298.529  0.69 36.63    -0.080 Cl
HETATM   11  C1  9SC B 601     224.383 239.325 299.946  0.69 33.25     0.070 A 
HETATM   12 CL1  9SC B 601     224.103 237.593 299.620  0.69 33.56    -0.081 Cl
HETATM   13  C6  9SC B 601     225.468 239.708 300.637  0.69 33.15     0.012 A 
HETATM   14  C5  9SC B 601     225.708 241.198 300.919  0.69 33.54     0.002 A 
HETATM   15  C4  9SC B 601     224.852 242.096 300.483  0.69 33.82     0.018 A 
ENDBRANCH   5   8
ENDBRANCH   1   2
BRANCH   1  16
HETATM   16  C12 9SC B 601     221.141 246.987 299.299  0.69 33.14     0.038 C 
BRANCH  16  17
HETATM   17  C13 9SC B 601     220.432 248.364 299.175  0.69 32.02     0.035 C 
BRANCH  17  18
HETATM   18  C14 9SC B 601     221.385 249.442 299.722  0.69 30.98     0.149 C 
BRANCH  18  19
HETATM   19  O1  9SC B 601     220.626 250.550 300.207  0.69 31.49    -0.331 OA
BRANCH  19  20
HETATM   20  C15 9SC B 601     220.959 251.792 299.616  0.69 31.02     0.096 A 
HETATM   21  C16 9SC B 601     221.999 251.845 298.540  0.69 30.63     0.024 A 
HETATM   22  C17 9SC B 601     222.333 253.051 297.957  0.69 30.77    -0.001 A 
HETATM   23  C18 9SC B 601     221.636 254.343 298.409  0.69 30.32    -0.004 A 
HETATM   24  C19 9SC B 601     220.730 254.295 299.342  0.69 30.31     0.081 A 
HETATM   25  C21 9SC B 601     222.050 255.704 297.707  0.69 30.44     0.036 C 
HETATM   26  N3  9SC B 601     220.042 255.496 299.805  0.69 30.27    -0.224 NA
HETATM   27  C20 9SC B 601     220.352 252.907 300.010  0.69 30.88     0.043 A 
HETATM   28  C23 9SC B 601     220.581 256.814 299.467  0.69 29.68     0.190 C 
HETATM   29  O2A 9SC B 601     219.957 257.945 299.888  0.69 29.13    -0.174 OA
HETATM   30  C22 9SC B 601     221.878 256.901 298.614  0.69 30.20     0.079 C 
ENDBRANCH  19  20
ENDBRANCH  18  19
ENDBRANCH  17  18
ENDBRANCH  16  17
ENDBRANCH   1  16
TORSDOF 7
ENDMDL
MODEL 6
REMARK VINA RESULT:     -10.0      1.930      2.942
REMARK  7 active torsions:
REMARK  status: ('A' for Active; 'I' for Inactive)
REMARK    1  A    between atoms: N1_4  and  C3_9 
REMARK    2  A    between atoms: O1_5  and  C14_21 
REMARK    3  A    between atoms: O1_5  and  C15_22 
REMARK    4  A    between atoms: N2_7  and  C11_18 
REMARK    5  A    between atoms: C11_18  and  C12_19 
REMARK    6  A    between atoms: C12_19  and  C13_20 
REMARK    7  A    between atoms: C13_20  and  C14_21 
ROOT
HETATM    1  C11 9SC B 601     219.726 247.652 297.909  0.69 32.97     0.251 C 
ENDROOT
BRANCH   1   2
HETATM    2  N2  9SC B 601     220.424 246.613 298.351  0.69 32.89     0.141 N 
HETATM    3  C8  9SC B 601     221.180 246.105 297.356  0.69 32.62     0.274 C 
HETATM    4  C7  9SC B 601     222.180 245.138 297.915  0.69 32.12     0.137 C 
HETATM    5  N1  9SC B 601     221.509 244.213 298.802  0.69 32.72    -0.344 N 
HETATM    6  C10 9SC B 601     220.359 244.659 299.580  0.69 32.83     0.137 C 
HETATM    7  C9  9SC B 601     219.610 245.708 298.820  0.69 32.95     0.274 C 
BRANCH   5   8
HETATM    8  C3  9SC B 601     221.997 242.788 298.939  0.69 33.61     0.068 A 
HETATM    9  C2  9SC B 601     222.993 242.477 299.785  0.69 34.54     0.084 A 
HETATM   10 CL2  9SC B 601     223.769 243.731 300.781  0.69 36.63    -0.080 Cl
HETATM   11  C1  9SC B 601     223.463 241.044 299.901  0.69 33.25     0.070 A 
HETATM   12 CL1  9SC B 601     224.784 240.631 301.027  0.69 33.56    -0.081 Cl
HETATM   13  C6  9SC B 601     222.892 240.082 299.160  0.69 33.15     0.012 A 
HETATM   14  C5  9SC B 601     221.756 240.438 298.190  0.69 33.54     0.002 A 
HETATM   15  C4  9SC B 601     221.345 241.683 298.087  0.69 33.82     0.018 A 
ENDBRANCH   5   8
ENDBRANCH   1   2
BRANCH   1  16
HETATM   16  C12 9SC B 601     220.540 248.973 298.226  0.69 33.14     0.038 C 
BRANCH  16  17
HETATM   17  C13 9SC B 601     220.997 248.997 299.711  0.69 32.02     0.035 C 
BRANCH  17  18
HETATM   18  C14 9SC B 601     221.678 250.352 299.979  0.69 30.98     0.149 C 
BRANCH  18  19
HETATM   19  O1  9SC B 601     220.687 251.330 300.296  0.69 31.49    -0.331 OA
BRANCH  19  20
HETATM   20  C15 9SC B 601     220.898 252.593 299.694  0.69 31.02     0.096 A 
HETATM   21  C16 9SC B 601     221.924 252.737 298.612  0.69 30.63     0.024 A 
HETATM   22  C17 9SC B 601     222.139 253.963 298.019  0.69 30.77    -0.001 A 
HETATM   23  C18 9SC B 601     221.324 255.187 298.464  0.69 30.32    -0.004 A 
HETATM   24  C19 9SC B 601     220.430 255.060 299.401  0.69 30.31     0.081 A 
HETATM   25  C21 9SC B 601     221.604 256.575 297.750  0.69 30.44     0.036 C 
HETATM   26  N3  9SC B 601     219.632 256.194 299.858  0.69 30.27    -0.224 NA
HETATM   27  C20 9SC B 601     220.189 253.648 300.082  0.69 30.88     0.043 A 
HETATM   28  C23 9SC B 601     220.042 257.554 299.507  0.69 29.68     0.190 C 
HETATM   29  O2A 9SC B 601     219.314 258.625 299.922  0.69 29.13    -0.174 OA
HETATM   30  C22 9SC B 601     221.321 257.758 298.647  0.69 30.20     0.079 C 
ENDBRANCH  19  20
ENDBRANCH  18  19
ENDBRANCH  17  18
ENDBRANCH  16  17
ENDBRANCH   1  16
TORSDOF 7
ENDMDL
MODEL 7
REMARK VINA RESULT:     -10.0      1.680      2.457
REMARK  7 active torsions:
REMARK  status: ('A' for Active; 'I' for Inactive)
REMARK    1  A    between atoms: N1_4  and  C3_9 
REMARK    2  A    between atoms: O1_5  and  C14_21 
REMARK    3  A    between atoms: O1_5  and  C15_22 
REMARK    4  A    between atoms: N2_7  and  C11_18 
REMARK    5  A    between atoms: C11_18  and  C12_19 
REMARK    6  A    between atoms: C12_19  and  C13_20 
REMARK    7  A    between atoms: C13_20  and  C14_21 
ROOT
HETATM    1  C11 9SC B 601     219.969 246.512 299.719  0.69 32.97     0.251 C 
ENDROOT
BRANCH   1   2
HETATM    2  N2  9SC B 601     220.606 245.355 299.845  0.69 32.89     0.141 N 
HETATM    3  C8  9SC B 601     221.604 245.273 298.942  0.69 32.62     0.274 C 
HETATM    4  C7  9SC B 601     222.501 244.118 299.273  0.69 32.12     0.137 C 
HETATM    5  N1  9SC B 601     221.698 242.939 299.509  0.69 32.72    -0.344 N 
HETATM    6  C10 9SC B 601     220.372 243.071 300.101  0.69 32.83     0.137 C 
HETATM    7  C9  9SC B 601     219.761 244.373 299.688  0.69 32.95     0.274 C 
BRANCH   5   8
HETATM    8  C3  9SC B 601     222.226 241.566 299.157  0.69 33.61     0.068 A 
HETATM    9  C2  9SC B 601     223.095 240.933 299.962  0.69 34.54     0.084 A 
HETATM   10 CL2  9SC B 601     223.652 241.686 301.475  0.69 36.63    -0.080 Cl
HETATM   11  C1  9SC B 601     223.609 239.561 299.585  0.69 33.25     0.070 A 
HETATM   12 CL1  9SC B 601     224.762 238.719 300.656  0.69 33.56    -0.081 Cl
HETATM   13  C6  9SC B 601     223.202 238.974 298.449  0.69 33.15     0.012 A 
HETATM   14  C5  9SC B 601     222.211 239.699 297.527  0.69 33.54     0.002 A 
HETATM   15  C4  9SC B 601     221.763 240.892 297.852  0.69 33.82     0.018 A 
ENDBRANCH   5   8
ENDBRANCH   1   2
BRANCH   1  16
HETATM   16  C12 9SC B 601     221.005 247.683 299.980  0.69 33.14     0.038 C 
BRANCH  16  17
HETATM   17  C13 9SC B 601     220.528 249.000 299.308  0.69 32.02     0.035 C 
BRANCH  17  18
HETATM   18  C14 9SC B 601     221.422 250.146 299.819  0.69 30.98     0.149 C 
BRANCH  18  19
HETATM   19  O1  9SC B 601     220.603 251.205 300.317  0.69 31.49    -0.331 OA
BRANCH  19  20
HETATM   20  C15 9SC B 601     220.845 252.464 299.717  0.69 31.02     0.096 A 
HETATM   21  C16 9SC B 601     221.879 252.585 298.641  0.69 30.63     0.024 A 
HETATM   22  C17 9SC B 601     222.125 253.808 298.050  0.69 30.77    -0.001 A 
HETATM   23  C18 9SC B 601     221.336 255.049 298.494  0.69 30.32    -0.004 A 
HETATM   24  C19 9SC B 601     220.435 254.942 299.427  0.69 30.31     0.081 A 
HETATM   25  C21 9SC B 601     221.651 256.432 297.783  0.69 30.44     0.036 C 
HETATM   26  N3  9SC B 601     219.662 256.092 299.882  0.69 30.27    -0.224 NA
HETATM   27  C20 9SC B 601     220.159 253.534 300.104  0.69 30.88     0.043 A 
HETATM   28  C23 9SC B 601     220.104 257.444 299.535  0.69 29.68     0.190 C 
HETATM   29  O2A 9SC B 601     219.399 258.530 299.949  0.69 29.13    -0.174 OA
HETATM   30  C22 9SC B 601     221.391 257.620 298.682  0.69 30.20     0.079 C 
ENDBRANCH  19  20
ENDBRANCH  18  19
ENDBRANCH  17  18
ENDBRANCH  16  17
ENDBRANCH   1  16
TORSDOF 7
ENDMDL
MODEL 8
REMARK VINA RESULT:     -10.0      2.250      3.935
REMARK  7 active torsions:
REMARK  status: ('A' for Active; 'I' for Inactive)
REMARK    1  A    between atoms: N1_4  and  C3_9 
REMARK    2  A    between atoms: O1_5  and  C14_21 
REMARK    3  A    between atoms: O1_5  and  C15_22 
REMARK    4  A    between atoms: N2_7  and  C11_18 
REMARK    5  A    between atoms: C11_18  and  C12_19 
REMARK    6  A    between atoms: C12_19  and  C13_20 
REMARK    7  A    between atoms: C13_20  and  C14_21 
ROOT
HETATM    1  C11 9SC B 601     220.884 249.342 298.217  0.69 32.97     0.251 C 
ENDROOT
BRANCH   1   2
HETATM    2  N2  9SC B 601     220.874 248.036 298.452  0.69 32.89     0.141 N 
HETATM    3  C8  9SC B 601     221.076 247.798 299.765  0.69 32.62     0.274 C 
HETATM    4  C7  9SC B 601     220.769 246.365 300.079  0.69 32.12     0.137 C 
HETATM    5  N1  9SC B 601     221.437 245.510 299.122  0.69 32.72    -0.344 N 
HETATM    6  C10 9SC B 601     221.627 245.968 297.750  0.69 32.83     0.137 C 
HETATM    7  C9  9SC B 601     221.794 247.455 297.732  0.69 32.95     0.274 C 
BRANCH   5   8
HETATM    8  C3  9SC B 601     221.929 244.139 299.527  0.69 33.61     0.068 A 
HETATM    9  C2  9SC B 601     221.247 243.032 299.191  0.69 34.54     0.084 A 
HETATM   10 CL2  9SC B 601     219.740 243.140 298.250  0.69 36.63    -0.080 Cl
HETATM   11  C1  9SC B 601     221.761 241.673 299.612  0.69 33.25     0.070 A 
HETATM   12 CL1  9SC B 601     220.854 240.203 299.162  0.69 33.56    -0.081 Cl
HETATM   13  C6  9SC B 601     222.895 241.568 300.321  0.69 33.15     0.012 A 
HETATM   14  C5  9SC B 601     223.673 242.833 300.709  0.69 33.54     0.002 A 
HETATM   15  C4  9SC B 601     223.229 244.016 300.345  0.69 33.82     0.018 A 
ENDBRANCH   5   8
ENDBRANCH   1   2
BRANCH   1  16
HETATM   16  C12 9SC B 601     220.699 250.099 299.596  0.69 33.14     0.038 C 
BRANCH  16  17
HETATM   17  C13 9SC B 601     219.555 251.145 299.502  0.69 32.02     0.035 C 
BRANCH  17  18
HETATM   18  C14 9SC B 601     219.929 252.345 300.392  0.69 30.98     0.149 C 
BRANCH  18  19
HETATM   19  O1  9SC B 601     221.241 252.798 300.055  0.69 31.49    -0.331 OA
BRANCH  19  20
HETATM   20  C15 9SC B 601     221.271 253.988 299.288  0.69 31.02     0.096 A 
HETATM   21  C16 9SC B 601     222.186 254.085 298.106  0.69 30.63     0.024 A 
HETATM   22  C17 9SC B 601     222.223 255.240 297.353  0.69 30.77    -0.001 A 
HETATM   23  C18 9SC B 601     221.325 256.430 297.723  0.69 30.32    -0.004 A 
HETATM   24  C19 9SC B 601     220.529 256.343 298.748  0.69 30.31     0.081 A 
HETATM   25  C21 9SC B 601     221.401 257.736 296.825  0.69 30.44     0.036 C 
HETATM   26  N3  9SC B 601     219.658 257.447 299.139  0.69 30.27    -0.224 NA
HETATM   27  C20 9SC B 601     220.491 255.013 299.612  0.69 30.88     0.043 A 
HETATM   28  C23 9SC B 601     219.895 258.783 298.591  0.69 29.68     0.190 C 
HETATM   29  O2A 9SC B 601     219.097 259.826 298.942  0.69 29.13    -0.174 OA
HETATM   30  C22 9SC B 601     221.072 258.993 297.597  0.69 30.20     0.079 C 
ENDBRANCH  19  20
ENDBRANCH  18  19
ENDBRANCH  17  18
ENDBRANCH  16  17
ENDBRANCH   1  16
TORSDOF 7
ENDMDL
MODEL 9
REMARK VINA RESULT:      -9.9      2.510      4.177
REMARK  7 active torsions:
REMARK  status: ('A' for Active; 'I' for Inactive)
REMARK    1  A    between atoms: N1_4  and  C3_9 
REMARK    2  A    between atoms: O1_5  and  C14_21 
REMARK    3  A    between atoms: O1_5  and  C15_22 
REMARK    4  A    between atoms: N2_7  and  C11_18 
REMARK    5  A    between atoms: C11_18  and  C12_19 
REMARK    6  A    between atoms: C12_19  and  C13_20 
REMARK    7  A    between atoms: C13_20  and  C14_21 
ROOT
HETATM    1  C11 9SC B 601     221.168 249.166 298.237  0.69 32.97     0.251 C 
ENDROOT
BRANCH   1   2
HETATM    2  N2  9SC B 601     220.813 247.892 298.345  0.69 32.89     0.141 N 
HETATM    3  C8  9SC B 601     220.508 247.603 299.627  0.69 32.62     0.274 C 
HETATM    4  C7  9SC B 601     219.829 246.268 299.703  0.69 32.12     0.137 C 
HETATM    5  N1  9SC B 601     220.592 245.298 298.948  0.69 32.72    -0.344 N 
HETATM    6  C10 9SC B 601     221.323 245.717 297.758  0.69 32.83     0.137 C 
HETATM    7  C9  9SC B 601     221.784 247.132 297.920  0.69 32.95     0.274 C 
BRANCH   5   8
HETATM    8  C3  9SC B 601     220.629 243.848 299.376  0.69 33.61     0.068 A 
HETATM    9  C2  9SC B 601     221.707 243.336 299.992  0.69 34.54     0.084 A 
HETATM   10 CL2  9SC B 601     223.130 244.350 300.331  0.69 36.63    -0.080 Cl
HETATM   11  C1  9SC B 601     221.718 241.882 300.408  0.69 33.25     0.070 A 
HETATM   12 CL1  9SC B 601     223.151 241.204 301.228  0.69 33.56    -0.081 Cl
HETATM   13  C6  9SC B 601     220.656 241.100 300.162  0.69 33.15     0.012 A 
HETATM   14  C5  9SC B 601     219.424 241.683 299.456  0.69 33.54     0.002 A 
HETATM   15  C4  9SC B 601     219.412 242.947 299.093  0.69 33.82     0.018 A 
ENDBRANCH   5   8
ENDBRANCH   1   2
BRANCH   1  16
HETATM   16  C12 9SC B 601     221.353 249.760 299.694  0.69 33.14     0.038 C 
BRANCH  16  17
HETATM   17  C13 9SC B 601     222.706 250.515 299.815  0.69 32.02     0.035 C 
BRANCH  17  18
HETATM   18  C14 9SC B 601     222.422 251.910 300.400  0.69 30.98     0.149 C 
BRANCH  18  19
HETATM   19  O1  9SC B 601     221.166 252.387 299.914  0.69 31.49    -0.331 OA
BRANCH  19  20
HETATM   20  C15 9SC B 601     221.237 253.616 299.217  0.69 31.02     0.096 A 
HETATM   21  C16 9SC B 601     222.193 253.766 298.073  0.69 30.63     0.024 A 
HETATM   22  C17 9SC B 601     222.270 254.960 297.387  0.69 30.77    -0.001 A 
HETATM   23  C18 9SC B 601     221.376 256.141 297.793  0.69 30.32    -0.004 A 
HETATM   24  C19 9SC B 601     220.544 256.009 298.785  0.69 30.31     0.081 A 
HETATM   25  C21 9SC B 601     221.499 257.493 296.972  0.69 30.44     0.036 C 
HETATM   26  N3  9SC B 601     219.675 257.102 299.208  0.69 30.27    -0.224 NA
HETATM   27  C20 9SC B 601     220.460 254.634 299.572  0.69 30.88     0.043 A 
HETATM   28  C23 9SC B 601     219.948 258.463 298.743  0.69 29.68     0.190 C 
HETATM   29  O2A 9SC B 601     219.151 259.497 299.125  0.69 29.13    -0.174 OA
HETATM   30  C22 9SC B 601     221.160 258.710 297.803  0.69 30.20     0.079 C 
ENDBRANCH  19  20
ENDBRANCH  18  19
ENDBRANCH  17  18
ENDBRANCH  16  17
ENDBRANCH   1  16
TORSDOF 7
ENDMDL
MODEL 10
REMARK VINA RESULT:      -9.9      4.676     11.813
REMARK  7 active torsions:
REMARK  status: ('A' for Active; 'I' for Inactive)
REMARK    1  A    between atoms: N1_4  and  C3_9 
REMARK    2  A    between atoms: O1_5  and  C14_21 
REMARK    3  A    between atoms: O1_5  and  C15_22 
REMARK    4  A    between atoms: N2_7  and  C11_18 
REMARK    5  A    between atoms: C11_18  and  C12_19 
REMARK    6  A    between atoms: C12_19  and  C13_20 
REMARK    7  A    between atoms: C13_20  and  C14_21 
ROOT
HETATM    1  C11 9SC B 601     221.026 247.914 299.978  0.69 32.97     0.251 C 
ENDROOT
BRANCH   1   2
HETATM    2  N2  9SC B 601     221.027 249.241 299.972  0.69 32.89     0.141 N 
HETATM    3  C8  9SC B 601     220.185 249.701 299.023  0.69 32.62     0.274 C 
HETATM    4  C7  9SC B 601     219.958 251.171 299.211  0.69 32.12     0.137 C 
HETATM    5  N1  9SC B 601     221.231 251.837 299.373  0.69 32.72    -0.344 N 
HETATM    6  C10 9SC B 601     222.333 251.144 300.030  0.69 32.83     0.137 C 
HETATM    7  C9  9SC B 601     222.239 249.675 299.762  0.69 32.95     0.274 C 
BRANCH   5   8
HETATM    8  C3  9SC B 601     221.428 253.253 298.876  0.69 33.61     0.068 A 
HETATM    9  C2  9SC B 601     222.217 253.511 297.821  0.69 34.54     0.084 A 
HETATM   10 CL2  9SC B 601     223.056 252.195 296.965  0.69 36.63    -0.080 Cl
HETATM   11  C1  9SC B 601     222.397 254.936 297.346  0.69 33.25     0.070 A 
HETATM   12 CL1  9SC B 601     223.444 255.279 295.943  0.69 33.56    -0.081 Cl
HETATM   13  C6  9SC B 601     221.774 255.943 297.977  0.69 33.15     0.012 A 
HETATM   14  C5  9SC B 601     220.874 255.648 299.185  0.69 33.54     0.002 A 
HETATM   15  C4  9SC B 601     220.715 254.411 299.600  0.69 33.82     0.018 A 
ENDBRANCH   5   8
ENDBRANCH   1   2
BRANCH   1  16
HETATM   16  C12 9SC B 601     220.546 247.407 298.556  0.69 33.14     0.038 C 
BRANCH  16  17
HETATM   17  C13 9SC B 601     221.253 246.077 298.177  0.69 32.02     0.035 C 
BRANCH  17  18
HETATM   18  C14 9SC B 601     221.526 245.295 299.474  0.69 30.98     0.149 C 
BRANCH  18  19
HETATM   19  O1  9SC B 601     221.422 243.893 299.219  0.69 31.49    -0.331 OA
BRANCH  19  20
HETATM   20  C15 9SC B 601     222.513 243.129 299.697  0.69 31.02     0.096 A 
HETATM   21  C16 9SC B 601     223.597 243.797 300.486  0.69 30.63     0.024 A 
HETATM   22  C17 9SC B 601     224.665 243.061 300.957  0.69 30.77    -0.001 A 
HETATM   23  C18 9SC B 601     224.746 241.554 300.673  0.69 30.32    -0.004 A 
HETATM   24  C19 9SC B 601     223.803 240.974 299.989  0.69 30.31     0.081 A 
HETATM   25  C21 9SC B 601     225.993 240.751 301.237  0.69 30.44     0.036 C 
HETATM   26  N3  9SC B 601     223.837 239.546 299.694  0.69 30.27    -0.224 NA
HETATM   27  C20 9SC B 601     222.578 241.825 299.449  0.69 30.88     0.043 A 
HETATM   28  C23 9SC B 601     225.084 238.800 299.875  0.69 29.68     0.190 C 
HETATM   29  O2A 9SC B 601     225.138 237.469 299.606  0.69 29.13    -0.174 OA
HETATM   30  C22 9SC B 601     226.345 239.552 300.386  0.69 30.20     0.079 C 
ENDBRANCH  19  20
ENDBRANCH  18  19
ENDBRANCH  17  18
ENDBRANCH  16  17
ENDBRANCH   1  16
TORSDOF 7
ENDMDL
