MODEL 1
REMARK VINA RESULT:      -9.6      0.000      0.000
REMARK  5 active torsions:
REMARK  status: ('A' for Active; 'I' for Inactive)
REMARK       I    between atoms: N_2  and  C_4 
REMARK       I    between atoms: C_4  and  N_6 
REMARK    1  A    between atoms: N_6  and  C_7 
REMARK    2  A    between atoms: C_10  and  C_13 
REMARK    3  A    between atoms: C_13  and  C_14 
REMARK    4  A    between atoms: C_14  and  N_15 
REMARK    5  A    between atoms: N_18  and  C_21 
ROOT
ATOM      1  C           0     220.438 258.486 297.790  0.00  0.00     0.273 C 
ENDROOT
BRANCH   1   2
ATOM      2  C           0     220.957 257.607 298.930  0.00  0.00     0.034 C 
BRANCH   2   3
ATOM      3  C           0     220.909 256.138 298.504  0.00  0.00    -0.013 C 
ATOM      4  C           0     222.314 255.672 298.117  0.00  0.00     0.007 C 
ATOM      5  C           0     222.265 254.203 297.691  0.00  0.00     0.026 C 
ATOM      6  C           0     221.747 253.353 298.851  0.00  0.00     0.086 C 
ATOM      7  C           0     220.340 253.818 299.237  0.00  0.00     0.026 C 
ATOM      8  C           0     220.390 255.287 299.664  0.00  0.00     0.007 C 
BRANCH   6   9
ATOM      9  N           0     221.700 251.946 298.443  0.00  0.00    -0.338 N 
ATOM     10  C           0     221.573 250.978 299.373  0.00  0.00     0.317 C 
ATOM     11  N           0     221.642 249.682 299.009  0.00  0.00    -0.343 N 
ATOM     12  O           0     221.399 251.275 300.539  0.00  0.00    -0.247 OA
ATOM     13  C           0     221.380 248.631 299.995  0.00  0.00     0.154 C 
ATOM     14  C           0     221.977 249.325 297.628  0.00  0.00     0.154 C 
ATOM     15  H           0     221.760 251.712 297.503  0.00  0.00     0.164 HD
ENDBRANCH   6   9
ENDBRANCH   2   3
ENDBRANCH   1   2
BRANCH   1  16
ATOM     16  N           0     219.430 259.419 298.312  0.00  0.00     0.090 N 
ATOM     17  C           0     219.287 259.129 299.744  0.00  0.00     0.287 C 
ATOM     18  C           0     218.340 260.145 300.381  0.00  0.00     0.126 C 
ATOM     19  N           0     218.916 261.491 300.275  0.00  0.00    -0.279 NA
ATOM     20  C           0     219.059 261.781 298.843  0.00  0.00     0.126 C 
ATOM     21  C           0     220.006 260.765 298.204  0.00  0.00     0.287 C 
BRANCH  19  22
ATOM     22  C           0     217.957 262.380 300.771  0.00  0.00     0.034 A 
ATOM     23  C           0     216.624 262.235 300.411  0.00  0.00     0.025 A 
ATOM     24  C           0     215.677 263.111 300.905  0.00  0.00     0.004 A 
ATOM     25  C           0     216.057 264.138 301.748  0.00  0.00     0.026 A 
ATOM     26  C           0     217.385 264.289 302.106  0.00  0.00     0.057 A 
ATOM     27  C           0     218.338 263.412 301.619  0.00  0.00     0.077 A 
ATOM     28 Cl           0     217.856 265.581 303.167  0.00  0.00    -0.082 Cl
ATOM     29 Cl           0     220.004 263.602 302.066  0.00  0.00    -0.081 Cl
ENDBRANCH  19  22
ENDBRANCH   1  16
TORSDOF 5
ENDMDL
MODEL 2
REMARK VINA RESULT:      -9.5      4.144      7.316
REMARK  5 active torsions:
REMARK  status: ('A' for Active; 'I' for Inactive)
REMARK       I    between atoms: N_2  and  C_4 
REMARK       I    between atoms: C_4  and  N_6 
REMARK    1  A    between atoms: N_6  and  C_7 
REMARK    2  A    between atoms: C_10  and  C_13 
REMARK    3  A    between atoms: C_13  and  C_14 
REMARK    4  A    between atoms: C_14  and  N_15 
REMARK    5  A    between atoms: N_18  and  C_21 
ROOT
ATOM      1  C           0     222.092 251.080 299.803  0.00  0.00     0.273 C 
ENDROOT
BRANCH   1   2
ATOM      2  C           0     221.487 250.566 298.495  0.00  0.00     0.034 C 
BRANCH   2   3
ATOM      3  C           0     220.905 249.168 298.716  0.00  0.00    -0.013 C 
ATOM      4  C           0     221.359 248.242 297.586  0.00  0.00     0.007 C 
ATOM      5  C           0     220.776 246.844 297.807  0.00  0.00     0.026 C 
ATOM      6  C           0     221.267 246.293 299.147  0.00  0.00     0.086 C 
ATOM      7  C           0     220.812 247.220 300.277  0.00  0.00     0.026 C 
ATOM      8  C           0     221.396 248.617 300.055  0.00  0.00     0.007 C 
BRANCH   6   9
ATOM      9  N           0     220.709 244.955 299.359  0.00  0.00    -0.338 N 
ATOM     10  C           0     221.492 243.964 299.829  0.00  0.00     0.317 C 
ATOM     11  N           0     221.010 242.709 299.919  0.00  0.00    -0.343 N 
ATOM     12  O           0     222.635 244.204 300.170  0.00  0.00    -0.247 OA
ATOM     13  C           0     221.816 241.658 300.544  0.00  0.00     0.154 C 
ATOM     14  C           0     219.680 242.396 299.391  0.00  0.00     0.154 C 
ATOM     15  H           0     219.774 244.782 299.161  0.00  0.00     0.164 HD
ENDBRANCH   6   9
ENDBRANCH   2   3
ENDBRANCH   1   2
BRANCH   1  16
ATOM     16  N           0     221.792 252.510 299.952  0.00  0.00     0.090 N 
ATOM     17  C           0     222.203 253.160 298.701  0.00  0.00     0.287 C 
ATOM     18  C           0     221.808 254.637 298.737  0.00  0.00     0.126 C 
ATOM     19  N           0     220.347 254.755 298.818  0.00  0.00    -0.279 NA
ATOM     20  C           0     219.936 254.104 300.068  0.00  0.00     0.126 C 
ATOM     21  C           0     220.331 252.628 300.034  0.00  0.00     0.287 C 
BRANCH  19  22
ATOM     22  C           0     220.060 256.116 298.960  0.00  0.00     0.034 A 
ATOM     23  C           0     219.205 256.544 299.967  0.00  0.00     0.025 A 
ATOM     24  C           0     218.926 257.890 300.109  0.00  0.00     0.004 A 
ATOM     25  C           0     219.489 258.809 299.244  0.00  0.00     0.026 A 
ATOM     26  C           0     220.338 258.386 298.236  0.00  0.00     0.057 A 
ATOM     27  C           0     220.626 257.041 298.092  0.00  0.00     0.077 A 
ATOM     28 Cl           0     221.044 259.546 297.153  0.00  0.00    -0.082 Cl
ATOM     29 Cl           0     221.690 256.510 296.828  0.00  0.00    -0.081 Cl
ENDBRANCH  19  22
ENDBRANCH   1  16
TORSDOF 5
ENDMDL
MODEL 3
REMARK VINA RESULT:      -9.5      5.474      9.452
REMARK  5 active torsions:
REMARK  status: ('A' for Active; 'I' for Inactive)
REMARK       I    between atoms: N_2  and  C_4 
REMARK       I    between atoms: C_4  and  N_6 
REMARK    1  A    between atoms: N_6  and  C_7 
REMARK    2  A    between atoms: C_10  and  C_13 
REMARK    3  A    between atoms: C_13  and  C_14 
REMARK    4  A    between atoms: C_14  and  N_15 
REMARK    5  A    between atoms: N_18  and  C_21 
ROOT
ATOM      1  C           0     221.407 248.592 299.954  0.00  0.00     0.273 C 
ENDROOT
BRANCH   1   2
ATOM      2  C           0     220.774 248.190 298.620  0.00  0.00     0.034 C 
BRANCH   2   3
ATOM      3  C           0     220.706 246.664 298.526  0.00  0.00    -0.013 C 
ATOM      4  C           0     221.908 246.149 297.731  0.00  0.00     0.007 C 
ATOM      5  C           0     221.840 244.623 297.637  0.00  0.00     0.026 C 
ATOM      6  C           0     221.863 244.023 299.043  0.00  0.00     0.086 C 
ATOM      7  C           0     220.661 244.539 299.838  0.00  0.00     0.026 C 
ATOM      8  C           0     220.730 246.065 299.932  0.00  0.00     0.007 C 
BRANCH   6   9
ATOM      9  N           0     221.798 242.562 298.953  0.00  0.00    -0.338 N 
ATOM     10  C           0     222.861 241.816 299.315  0.00  0.00     0.317 C 
ATOM     11  N           0     222.843 240.482 299.128  0.00  0.00    -0.343 N 
ATOM     12  O           0     223.837 242.349 299.809  0.00  0.00    -0.247 OA
ATOM     13  C           0     223.941 239.656 299.634  0.00  0.00     0.154 C 
ATOM     14  C           0     221.723 239.857 298.419  0.00  0.00     0.154 C 
ATOM     15  H           0     220.990 242.132 298.632  0.00  0.00     0.164 HD
ENDBRANCH   6   9
ENDBRANCH   2   3
ENDBRANCH   1   2
BRANCH   1  16
ATOM     16  N           0     221.159 250.018 300.203  0.00  0.00     0.090 N 
ATOM     17  C           0     222.392 250.730 299.843  0.00  0.00     0.287 C 
ATOM     18  C           0     222.167 252.237 299.962  0.00  0.00     0.126 C 
ATOM     19  N           0     221.137 252.660 299.006  0.00  0.00    -0.279 NA
ATOM     20  C           0     219.905 251.948 299.366  0.00  0.00     0.126 C 
ATOM     21  C           0     220.127 250.441 299.248  0.00  0.00     0.287 C 
BRANCH  19  22
ATOM     22  C           0     220.901 254.017 299.243  0.00  0.00     0.034 A 
ATOM     23  C           0     220.055 254.406 300.274  0.00  0.00     0.025 A 
ATOM     24  C           0     219.825 255.747 300.510  0.00  0.00     0.004 A 
ATOM     25  C           0     220.429 256.704 299.714  0.00  0.00     0.026 A 
ATOM     26  C           0     221.268 256.321 298.683  0.00  0.00     0.057 A 
ATOM     27  C           0     221.506 254.979 298.445  0.00  0.00     0.077 A 
ATOM     28 Cl           0     222.025 257.527 297.688  0.00  0.00    -0.082 Cl
ATOM     29 Cl           0     222.559 254.499 297.151  0.00  0.00    -0.081 Cl
ENDBRANCH  19  22
ENDBRANCH   1  16
TORSDOF 5
ENDMDL
MODEL 4
REMARK VINA RESULT:      -9.4      6.694     13.739
REMARK  5 active torsions:
REMARK  status: ('A' for Active; 'I' for Inactive)
REMARK       I    between atoms: N_2  and  C_4 
REMARK       I    between atoms: C_4  and  N_6 
REMARK    1  A    between atoms: N_6  and  C_7 
REMARK    2  A    between atoms: C_10  and  C_13 
REMARK    3  A    between atoms: C_13  and  C_14 
REMARK    4  A    between atoms: C_14  and  N_15 
REMARK    5  A    between atoms: N_18  and  C_21 
ROOT
ATOM      1  C           0     220.922 249.799 298.616  0.00  0.00     0.273 C 
ENDROOT
BRANCH   1   2
ATOM      2  C           0     220.991 250.457 299.996  0.00  0.00     0.034 C 
BRANCH   2   3
ATOM      3  C           0     221.356 251.934 299.839  0.00  0.00    -0.013 C 
ATOM      4  C           0     221.768 252.208 298.392  0.00  0.00     0.007 C 
ATOM      5  C           0     222.134 253.685 298.235  0.00  0.00     0.026 C 
ATOM      6  C           0     220.926 254.551 298.594  0.00  0.00     0.086 C 
ATOM      7  C           0     220.514 254.278 300.043  0.00  0.00     0.026 C 
ATOM      8  C           0     220.148 252.800 300.198  0.00  0.00     0.007 C 
BRANCH   6   9
ATOM      9  N           0     221.276 255.965 298.445  0.00  0.00    -0.338 N 
ATOM     10  C           0     220.323 256.868 298.137  0.00  0.00     0.317 C 
ATOM     11  N           0     220.662 258.149 297.891  0.00  0.00    -0.343 N 
ATOM     12  O           0     219.157 256.525 298.081  0.00  0.00    -0.247 OA
ATOM     13  C           0     219.618 259.154 297.681  0.00  0.00     0.154 C 
ATOM     14  C           0     222.074 258.535 297.834  0.00  0.00     0.154 C 
ATOM     15  H           0     222.195 256.253 298.567  0.00  0.00     0.164 HD
ENDBRANCH   6   9
ENDBRANCH   2   3
ENDBRANCH   1   2
BRANCH   1  16
ATOM     16  N           0     220.525 248.393 298.763  0.00  0.00     0.090 N 
ATOM     17  C           0     221.283 247.632 297.762  0.00  0.00     0.287 C 
ATOM     18  C           0     221.010 246.139 297.938  0.00  0.00     0.126 C 
ATOM     19  N           0     221.487 245.701 299.255  0.00  0.00    -0.279 NA
ATOM     20  C           0     220.729 246.462 300.256  0.00  0.00     0.126 C 
ATOM     21  C           0     221.001 247.956 300.082  0.00  0.00     0.287 C 
BRANCH  19  22
ATOM     22  C           0     221.109 244.363 299.396  0.00  0.00     0.034 A 
ATOM     23  C           0     219.868 243.939 298.939  0.00  0.00     0.025 A 
ATOM     24  C           0     219.497 242.616 299.075  0.00  0.00     0.004 A 
ATOM     25  C           0     220.356 241.714 299.675  0.00  0.00     0.026 A 
ATOM     26  C           0     221.592 242.132 300.137  0.00  0.00     0.057 A 
ATOM     27  C           0     221.971 243.455 299.999  0.00  0.00     0.077 A 
ATOM     28 Cl           0     222.667 240.995 300.889  0.00  0.00    -0.082 Cl
ATOM     29 Cl           0     223.521 243.980 300.577  0.00  0.00    -0.081 Cl
ENDBRANCH  19  22
ENDBRANCH   1  16
TORSDOF 5
ENDMDL
MODEL 5
REMARK VINA RESULT:      -9.4      6.502     13.241
REMARK  5 active torsions:
REMARK  status: ('A' for Active; 'I' for Inactive)
REMARK       I    between atoms: N_2  and  C_4 
REMARK       I    between atoms: C_4  and  N_6 
REMARK    1  A    between atoms: N_6  and  C_7 
REMARK    2  A    between atoms: C_10  and  C_13 
REMARK    3  A    between atoms: C_13  and  C_14 
REMARK    4  A    between atoms: C_14  and  N_15 
REMARK    5  A    between atoms: N_18  and  C_21 
ROOT
ATOM      1  C           0     221.780 250.472 298.328  0.00  0.00     0.273 C 
ENDROOT
BRANCH   1   2
ATOM      2  C           0     222.324 250.990 299.660  0.00  0.00     0.034 C 
BRANCH   2   3
ATOM      3  C           0     221.860 252.432 299.875  0.00  0.00    -0.013 C 
ATOM      4  C           0     222.116 253.245 298.605  0.00  0.00     0.007 C 
ATOM      5  C           0     221.652 254.688 298.820  0.00  0.00     0.026 C 
ATOM      6  C           0     220.157 254.700 299.142  0.00  0.00     0.086 C 
ATOM      7  C           0     219.902 253.887 300.414  0.00  0.00     0.026 C 
ATOM      8  C           0     220.365 252.445 300.197  0.00  0.00     0.007 C 
BRANCH   6   9
ATOM      9  N           0     219.713 256.081 299.348  0.00  0.00    -0.338 N 
ATOM     10  C           0     219.977 257.020 298.418  0.00  0.00     0.317 C 
ATOM     11  N           0     219.668 258.310 298.657  0.00  0.00    -0.343 N 
ATOM     12  O           0     220.496 256.703 297.365  0.00  0.00    -0.247 OA
ATOM     13  C           0     219.838 259.311 297.601  0.00  0.00     0.154 C 
ATOM     14  C           0     219.161 258.711 299.971  0.00  0.00     0.154 C 
ATOM     15  H           0     219.229 256.319 300.155  0.00  0.00     0.164 HD
ENDBRANCH   6   9
ENDBRANCH   2   3
ENDBRANCH   1   2
BRANCH   1  16
ATOM     16  N           0     221.042 249.222 298.552  0.00  0.00     0.090 N 
ATOM     17  C           0     221.558 248.247 297.583  0.00  0.00     0.287 C 
ATOM     18  C           0     220.920 246.882 297.839  0.00  0.00     0.126 C 
ATOM     19  N           0     221.302 246.400 299.172  0.00  0.00    -0.279 NA
ATOM     20  C           0     220.787 247.375 300.141  0.00  0.00     0.126 C 
ATOM     21  C           0     221.424 248.741 299.886  0.00  0.00     0.287 C 
BRANCH  19  22
ATOM     22  C           0     220.601 245.211 299.387  0.00  0.00     0.034 A 
ATOM     23  C           0     219.279 245.250 299.810  0.00  0.00     0.025 A 
ATOM     24  C           0     218.585 244.074 300.018  0.00  0.00     0.004 A 
ATOM     25  C           0     219.208 242.857 299.815  0.00  0.00     0.026 A 
ATOM     26  C           0     220.527 242.812 299.398  0.00  0.00     0.057 A 
ATOM     27  C           0     221.226 243.987 299.183  0.00  0.00     0.077 A 
ATOM     28 Cl           0     221.305 241.281 299.144  0.00  0.00    -0.082 Cl
ATOM     29 Cl           0     222.880 243.931 298.660  0.00  0.00    -0.081 Cl
ENDBRANCH  19  22
ENDBRANCH   1  16
TORSDOF 5
ENDMDL
MODEL 6
REMARK VINA RESULT:      -9.4      8.741     16.498
REMARK  5 active torsions:
REMARK  status: ('A' for Active; 'I' for Inactive)
REMARK       I    between atoms: N_2  and  C_4 
REMARK       I    between atoms: C_4  and  N_6 
REMARK    1  A    between atoms: N_6  and  C_7 
REMARK    2  A    between atoms: C_10  and  C_13 
REMARK    3  A    between atoms: C_13  and  C_14 
REMARK    4  A    between atoms: C_14  and  N_15 
REMARK    5  A    between atoms: N_18  and  C_21 
ROOT
ATOM      1  C           0     220.390 245.097 298.333  0.00  0.00     0.273 C 
ENDROOT
BRANCH   1   2
ATOM      2  C           0     219.901 246.084 299.395  0.00  0.00     0.034 C 
BRANCH   2   3
ATOM      3  C           0     220.416 247.486 299.064  0.00  0.00    -0.013 C 
ATOM      4  C           0     219.230 248.417 298.804  0.00  0.00     0.007 C 
ATOM      5  C           0     219.745 249.820 298.474  0.00  0.00     0.026 C 
ATOM      6  C           0     220.564 250.353 299.650  0.00  0.00     0.086 C 
ATOM      7  C           0     221.751 249.422 299.909  0.00  0.00     0.026 C 
ATOM      8  C           0     221.235 248.020 300.241  0.00  0.00     0.007 C 
BRANCH   6   9
ATOM      9  N           0     221.057 251.696 299.333  0.00  0.00    -0.338 N 
ATOM     10  C           0     220.448 252.779 299.855  0.00  0.00     0.317 C 
ATOM     11  N           0     220.830 254.015 299.478  0.00  0.00    -0.343 N 
ATOM     12  O           0     219.553 252.640 300.667  0.00  0.00    -0.247 OA
ATOM     13  C           0     220.257 255.191 300.135  0.00  0.00     0.154 C 
ATOM     14  C           0     221.819 254.181 298.409  0.00  0.00     0.154 C 
ATOM     15  H           0     221.822 251.805 298.746  0.00  0.00     0.164 HD
ENDBRANCH   6   9
ENDBRANCH   2   3
ENDBRANCH   1   2
BRANCH   1  16
ATOM     16  N           0     221.559 244.368 298.843  0.00  0.00     0.090 N 
ATOM     17  C           0     221.080 243.514 299.937  0.00  0.00     0.287 C 
ATOM     18  C           0     222.224 242.632 300.438  0.00  0.00     0.126 C 
ATOM     19  N           0     222.666 241.737 299.361  0.00  0.00    -0.279 NA
ATOM     20  C           0     223.145 242.592 298.268  0.00  0.00     0.126 C 
ATOM     21  C           0     222.002 243.474 297.766  0.00  0.00     0.287 C 
BRANCH  19  22
ATOM     22  C           0     223.779 241.044 299.845  0.00  0.00     0.034 A 
ATOM     23  C           0     224.730 241.704 300.612  0.00  0.00     0.025 A 
ATOM     24  C           0     225.827 241.017 301.094  0.00  0.00     0.004 A 
ATOM     25  C           0     225.984 239.674 300.805  0.00  0.00     0.026 A 
ATOM     26  C           0     225.042 239.013 300.037  0.00  0.00     0.057 A 
ATOM     27  C           0     223.938 239.695 299.556  0.00  0.00     0.077 A 
ATOM     28 Cl           0     225.243 237.326 299.678  0.00  0.00    -0.082 Cl
ATOM     29 Cl           0     222.756 238.865 298.593  0.00  0.00    -0.081 Cl
ENDBRANCH  19  22
ENDBRANCH   1  16
TORSDOF 5
ENDMDL
MODEL 7
REMARK VINA RESULT:      -9.4      7.973     15.693
REMARK  5 active torsions:
REMARK  status: ('A' for Active; 'I' for Inactive)
REMARK       I    between atoms: N_2  and  C_4 
REMARK       I    between atoms: C_4  and  N_6 
REMARK    1  A    between atoms: N_6  and  C_7 
REMARK    2  A    between atoms: C_10  and  C_13 
REMARK    3  A    between atoms: C_13  and  C_14 
REMARK    4  A    between atoms: C_14  and  N_15 
REMARK    5  A    between atoms: N_18  and  C_21 
ROOT
ATOM      1  C           0     219.972 246.665 299.343  0.00  0.00     0.273 C 
ENDROOT
BRANCH   1   2
ATOM      2  C           0     221.249 247.468 299.600  0.00  0.00     0.034 C 
BRANCH   2   3
ATOM      3  C           0     220.883 248.916 299.930  0.00  0.00    -0.013 C 
ATOM      4  C           0     222.144 249.782 299.895  0.00  0.00     0.007 C 
ATOM      5  C           0     221.778 251.230 300.226  0.00  0.00     0.026 C 
ATOM      6  C           0     220.773 251.750 299.197  0.00  0.00     0.086 C 
ATOM      7  C           0     219.511 250.885 299.234  0.00  0.00     0.026 C 
ATOM      8  C           0     219.878 249.436 298.902  0.00  0.00     0.007 C 
BRANCH   6   9
ATOM      9  N           0     220.423 253.137 299.514  0.00  0.00    -0.338 N 
ATOM     10  C           0     221.118 254.152 298.962  0.00  0.00     0.317 C 
ATOM     11  N           0     220.870 255.422 299.338  0.00  0.00    -0.343 N 
ATOM     12  O           0     221.971 253.920 298.127  0.00  0.00    -0.247 OA
ATOM     13  C           0     221.534 256.532 298.652  0.00  0.00     0.154 C 
ATOM     14  C           0     219.935 255.692 300.433  0.00  0.00     0.154 C 
ATOM     15  H           0     219.690 253.325 300.122  0.00  0.00     0.164 HD
ENDBRANCH   6   9
ENDBRANCH   2   3
ENDBRANCH   1   2
BRANCH   1  16
ATOM     16  N           0     220.326 245.295 298.951  0.00  0.00     0.090 N 
ATOM     17  C           0     221.790 245.249 298.848  0.00  0.00     0.287 C 
ATOM     18  C           0     222.241 243.817 298.560  0.00  0.00     0.126 C 
ATOM     19  N           0     221.866 242.947 299.681  0.00  0.00    -0.279 NA
ATOM     20  C           0     220.402 242.992 299.784  0.00  0.00     0.126 C 
ATOM     21  C           0     219.950 244.424 300.072  0.00  0.00     0.287 C 
BRANCH  19  22
ATOM     22  C           0     222.202 241.643 299.308  0.00  0.00     0.034 A 
ATOM     23  C           0     221.452 240.979 298.345  0.00  0.00     0.025 A 
ATOM     24  C           0     221.787 239.692 297.974  0.00  0.00     0.004 A 
ATOM     25  C           0     222.864 239.059 298.568  0.00  0.00     0.026 A 
ATOM     26  C           0     223.611 239.714 299.531  0.00  0.00     0.057 A 
ATOM     27  C           0     223.283 241.005 299.903  0.00  0.00     0.077 A 
ATOM     28 Cl           0     224.963 238.914 300.272  0.00  0.00    -0.082 Cl
ATOM     29 Cl           0     224.221 241.826 301.111  0.00  0.00    -0.081 Cl
ENDBRANCH  19  22
ENDBRANCH   1  16
TORSDOF 5
ENDMDL
MODEL 8
REMARK VINA RESULT:      -9.3      5.709      9.627
REMARK  5 active torsions:
REMARK  status: ('A' for Active; 'I' for Inactive)
REMARK       I    between atoms: N_2  and  C_4 
REMARK       I    between atoms: C_4  and  N_6 
REMARK    1  A    between atoms: N_6  and  C_7 
REMARK    2  A    between atoms: C_10  and  C_13 
REMARK    3  A    between atoms: C_13  and  C_14 
REMARK    4  A    between atoms: C_14  and  N_15 
REMARK    5  A    between atoms: N_18  and  C_21 
ROOT
ATOM      1  C           0     220.846 248.560 299.710  0.00  0.00     0.273 C 
ENDROOT
BRANCH   1   2
ATOM      2  C           0     219.639 247.780 299.183  0.00  0.00     0.034 C 
BRANCH   2   3
ATOM      3  C           0     220.033 246.319 298.961  0.00  0.00    -0.013 C 
ATOM      4  C           0     221.557 246.208 298.877  0.00  0.00     0.007 C 
ATOM      5  C           0     221.951 244.746 298.656  0.00  0.00     0.026 C 
ATOM      6  C           0     221.441 243.898 299.821  0.00  0.00     0.086 C 
ATOM      7  C           0     219.916 244.008 299.904  0.00  0.00     0.026 C 
ATOM      8  C           0     219.523 245.470 300.126  0.00  0.00     0.007 C 
BRANCH   6   9
ATOM      9  N           0     221.817 242.498 299.608  0.00  0.00    -0.338 N 
ATOM     10  C           0     222.828 241.956 300.317  0.00  0.00     0.317 C 
ATOM     11  N           0     223.248 240.705 300.045  0.00  0.00    -0.343 N 
ATOM     12  O           0     223.361 242.598 301.202  0.00  0.00    -0.247 OA
ATOM     13  C           0     224.258 240.070 300.893  0.00  0.00     0.154 C 
ATOM     14  C           0     222.692 239.979 298.899  0.00  0.00     0.154 C 
ATOM     15  H           0     221.339 241.961 298.957  0.00  0.00     0.164 HD
ENDBRANCH   6   9
ENDBRANCH   2   3
ENDBRANCH   1   2
BRANCH   1  16
ATOM     16  N           0     220.922 249.861 299.032  0.00  0.00     0.090 N 
ATOM     17  C           0     220.080 250.787 299.798  0.00  0.00     0.287 C 
ATOM     18  C           0     220.208 252.196 299.219  0.00  0.00     0.126 C 
ATOM     19  N           0     221.592 252.664 299.360  0.00  0.00    -0.279 NA
ATOM     20  C           0     222.434 251.738 298.593  0.00  0.00     0.126 C 
ATOM     21  C           0     222.307 250.328 299.171  0.00  0.00     0.287 C 
BRANCH  19  22
ATOM     22  C           0     221.666 253.902 298.715  0.00  0.00     0.034 A 
ATOM     23  C           0     222.469 254.053 297.592  0.00  0.00     0.025 A 
ATOM     24  C           0     222.538 255.276 296.952  0.00  0.00     0.004 A 
ATOM     25  C           0     221.816 256.352 297.435  0.00  0.00     0.026 A 
ATOM     26  C           0     221.019 256.207 298.557  0.00  0.00     0.057 A 
ATOM     27  C           0     220.941 254.984 299.199  0.00  0.00     0.077 A 
ATOM     28 Cl           0     220.114 257.561 299.158  0.00  0.00    -0.082 Cl
ATOM     29 Cl           0     219.941 254.802 300.605  0.00  0.00    -0.081 Cl
ENDBRANCH  19  22
ENDBRANCH   1  16
TORSDOF 5
ENDMDL
MODEL 9
REMARK VINA RESULT:      -9.2      2.690      4.773
REMARK  5 active torsions:
REMARK  status: ('A' for Active; 'I' for Inactive)
REMARK       I    between atoms: N_2  and  C_4 
REMARK       I    between atoms: C_4  and  N_6 
REMARK    1  A    between atoms: N_6  and  C_7 
REMARK    2  A    between atoms: C_10  and  C_13 
REMARK    3  A    between atoms: C_13  and  C_14 
REMARK    4  A    between atoms: C_14  and  N_15 
REMARK    5  A    between atoms: N_18  and  C_21 
ROOT
ATOM      1  C           0     221.323 253.918 299.248  0.00  0.00     0.273 C 
ENDROOT
BRANCH   1   2
ATOM      2  C           0     220.302 252.908 299.775  0.00  0.00     0.034 C 
BRANCH   2   3
ATOM      3  C           0     220.631 251.517 299.228  0.00  0.00    -0.013 C 
ATOM      4  C           0     221.739 250.885 300.072  0.00  0.00     0.007 C 
ATOM      5  C           0     222.067 249.494 299.525  0.00  0.00     0.026 C 
ATOM      6  C           0     220.818 248.615 299.583  0.00  0.00     0.086 C 
ATOM      7  C           0     219.709 249.247 298.737  0.00  0.00     0.026 C 
ATOM      8  C           0     219.381 250.638 299.286  0.00  0.00     0.007 C 
BRANCH   6   9
ATOM      9  N           0     221.132 247.284 299.059  0.00  0.00    -0.338 N 
ATOM     10  C           0     220.707 246.184 299.712  0.00  0.00     0.317 C 
ATOM     11  N           0     221.089 244.961 299.293  0.00  0.00    -0.343 N 
ATOM     12  O           0     219.981 246.296 300.681  0.00  0.00    -0.247 OA
ATOM     13  C           0     220.530 243.763 299.923  0.00  0.00     0.154 C 
ATOM     14  C           0     222.064 244.831 298.206  0.00  0.00     0.154 C 
ATOM     15  H           0     221.646 247.194 298.240  0.00  0.00     0.164 HD
ENDBRANCH   6   9
ENDBRANCH   2   3
ENDBRANCH   1   2
BRANCH   1  16
ATOM     16  N           0     220.938 255.270 299.672  0.00  0.00     0.090 N 
ATOM     17  C           0     221.656 256.207 298.799  0.00  0.00     0.287 C 
ATOM     18  C           0     221.209 257.637 299.102  0.00  0.00     0.126 C 
ATOM     19  N           0     219.781 257.783 298.799  0.00  0.00    -0.279 NA
ATOM     20  C           0     219.062 256.846 299.672  0.00  0.00     0.126 C 
ATOM     21  C           0     219.508 255.415 299.369  0.00  0.00     0.287 C 
BRANCH  19  22
ATOM     22  C           0     219.413 259.070 299.202  0.00  0.00     0.034 A 
ATOM     23  C           0     218.658 259.248 300.354  0.00  0.00     0.025 A 
ATOM     24  C           0     218.299 260.520 300.754  0.00  0.00     0.004 A 
ATOM     25  C           0     218.680 261.616 300.002  0.00  0.00     0.026 A 
ATOM     26  C           0     219.428 261.443 298.851  0.00  0.00     0.057 A 
ATOM     27  C           0     219.796 260.172 298.448  0.00  0.00     0.077 A 
ATOM     28 Cl           0     219.906 262.823 297.911  0.00  0.00    -0.082 Cl
ATOM     29 Cl           0     220.733 259.955 297.003  0.00  0.00    -0.081 Cl
ENDBRANCH  19  22
ENDBRANCH   1  16
TORSDOF 5
ENDMDL
MODEL 10
REMARK VINA RESULT:      -9.2      7.563     11.881
REMARK  5 active torsions:
REMARK  status: ('A' for Active; 'I' for Inactive)
REMARK       I    between atoms: N_2  and  C_4 
REMARK       I    between atoms: C_4  and  N_6 
REMARK    1  A    between atoms: N_6  and  C_7 
REMARK    2  A    between atoms: C_10  and  C_13 
REMARK    3  A    between atoms: C_13  and  C_14 
REMARK    4  A    between atoms: C_14  and  N_15 
REMARK    5  A    between atoms: N_18  and  C_21 
ROOT
ATOM      1  C           0     220.770 246.202 299.157  0.00  0.00     0.273 C 
ENDROOT
BRANCH   1   2
ATOM      2  C           0     221.459 245.653 297.907  0.00  0.00     0.034 C 
BRANCH   2   3
ATOM      3  C           0     222.612 244.736 298.320  0.00  0.00    -0.013 C 
ATOM      4  C           0     222.429 244.311 299.778  0.00  0.00     0.007 C 
ATOM      5  C           0     223.582 243.394 300.191  0.00  0.00     0.026 C 
ATOM      6  C           0     223.595 242.155 299.296  0.00  0.00     0.086 C 
ATOM      7  C           0     223.780 242.580 297.837  0.00  0.00     0.026 C 
ATOM      8  C           0     222.625 243.497 297.424  0.00  0.00     0.007 C 
BRANCH   6   9
ATOM      9  N           0     224.699 241.277 299.691  0.00  0.00    -0.338 N 
ATOM     10  C           0     224.515 239.943 299.743  0.00  0.00     0.317 C 
ATOM     11  N           0     225.495 239.145 300.212  0.00  0.00    -0.343 N 
ATOM     12  O           0     223.464 239.459 299.367  0.00  0.00    -0.247 OA
ATOM     13  C           0     225.345 237.689 300.153  0.00  0.00     0.154 C 
ATOM     14  C           0     226.710 239.734 300.782  0.00  0.00     0.154 C 
ATOM     15  H           0     225.564 241.657 299.916  0.00  0.00     0.164 HD
ENDBRANCH   6   9
ENDBRANCH   2   3
ENDBRANCH   1   2
BRANCH   1  16
ATOM     16  N           0     220.614 247.657 299.032  0.00  0.00     0.090 N 
ATOM     17  C           0     221.332 248.258 300.162  0.00  0.00     0.287 C 
ATOM     18  C           0     221.316 249.781 300.030  0.00  0.00     0.126 C 
ATOM     19  N           0     222.032 250.178 298.812  0.00  0.00    -0.279 NA
ATOM     20  C           0     221.314 249.577 297.681  0.00  0.00     0.126 C 
ATOM     21  C           0     221.329 248.054 297.812  0.00  0.00     0.287 C 
BRANCH  19  22
ATOM     22  C           0     221.884 251.563 298.691  0.00  0.00     0.034 A 
ATOM     23  C           0     221.047 252.251 299.560  0.00  0.00     0.025 A 
ATOM     24  C           0     220.905 253.620 299.442  0.00  0.00     0.004 A 
ATOM     25  C           0     221.587 254.304 298.454  0.00  0.00     0.026 A 
ATOM     26  C           0     222.419 253.623 297.583  0.00  0.00     0.057 A 
ATOM     27  C           0     222.569 252.252 297.699  0.00  0.00     0.077 A 
ATOM     28 Cl           0     223.274 254.488 296.345  0.00  0.00    -0.082 Cl
ATOM     29 Cl           0     223.612 251.397 296.606  0.00  0.00    -0.081 Cl
ENDBRANCH  19  22
ENDBRANCH   1  16
TORSDOF 5
ENDMDL
