MODEL 1
REMARK VINA RESULT:     -11.8      0.000      0.000
REMARK  8 active torsions:
REMARK  status: ('A' for Active; 'I' for Inactive)
REMARK    1  A    between atoms: CAA_1  and  C5_17 
REMARK    2  A    between atoms: CAB_2  and  C7_20 
REMARK    3  A    between atoms: C5'_4  and  O5'_5 
REMARK    4  A    between atoms: O5'_5  and  C27_35 
REMARK    5  A    between atoms: C2'_8  and  C1'_9 
REMARK    6  A    between atoms: C1'_9  and  N9_22 
REMARK    7  A    between atoms: N1_11  and  C2_13 
REMARK    8  A    between atoms: S1_12  and  C23_31 
ROOT
HETATM    1  C4  T2Q H 403     221.742 248.027 298.860  1.00 47.19     0.081 A 
HETATM    2  O4  T2Q H 403     218.949 250.493 299.090  1.00 47.19    -0.171 OA
HETATM    3  C5  T2Q H 403     221.107 246.955 298.171  1.00 47.19     0.061 A 
HETATM    4  C8  T2Q H 403     219.665 249.331 298.790  1.00 47.19     0.195 A 
HETATM    5  N9  T2Q H 403     221.001 249.217 299.167  1.00 47.19    -0.301 N 
HETATM    6  C12 T2Q H 403     219.010 248.216 298.075  1.00 47.19     0.046 A 
HETATM    7  C13 T2Q H 403     219.731 247.062 297.778  1.00 47.19     0.009 A 
ENDROOT
BRANCH   5   8
HETATM    8  C1' T2Q H 403     221.662 250.294 299.865  1.00 47.19     0.135 C 
BRANCH   8   9
HETATM    9  C2' T2Q H 403     222.082 251.362 298.862  1.00 47.19     0.002 A 
HETATM   10  C16 T2Q H 403     222.882 251.026 297.790  1.00 47.19    -0.002 A 
HETATM   11  C17 T2Q H 403     223.261 251.998 296.883  1.00 47.19     0.001 A 
HETATM   12  C18 T2Q H 403     222.837 253.301 297.055  1.00 47.19     0.017 A 
HETATM   13  C2  T2Q H 403     222.033 253.637 298.126  1.00 47.19     0.056 A 
HETATM   14  C20 T2Q H 403     221.657 252.663 299.032  1.00 47.19     0.015 A 
BRANCH  13  15
HETATM   15  N1  T2Q H 403     221.595 255.007 298.307  1.00 47.19    -0.348 N 
HETATM   16  C21 T2Q H 403     220.687 255.347 299.367  1.00 47.19     0.102 C 
HETATM   17  C22 T2Q H 403     219.955 256.607 298.989  1.00 47.19     0.040 C 
HETATM   18  C23 T2Q H 403     220.919 257.776 298.939  1.00 47.19     0.112 C 
HETATM   19  C24 T2Q H 403     222.174 257.410 298.130  1.00 47.19     0.040 C 
HETATM   20  C25 T2Q H 403     222.062 256.052 297.412  1.00 47.19     0.102 C 
BRANCH  18  21
HETATM   21  S1  T2Q H 403     220.099 259.181 298.151  1.00 47.19     0.170 S 
HETATM   22  O3' T2Q H 403     219.415 258.775 296.924  1.00 47.19    -0.226 OA
HETATM   23  C26 T2Q H 403     218.958 259.955 299.328  1.00 47.19     0.140 C 
HETATM   24  OP1 T2Q H 403     221.075 260.138 297.633  1.00 47.19    -0.226 OA
ENDBRANCH  18  21
ENDBRANCH  13  15
ENDBRANCH   8   9
ENDBRANCH   5   8
BRANCH   3  25
HETATM   25  CAA T2Q H 403     221.912 245.702 297.858  1.00 47.19     0.210 A 
HETATM   26  N6  T2Q H 403     222.102 244.683 298.696  1.00 47.19    -0.199 NA
HETATM   27  C7  T2Q H 403     222.870 243.750 298.058  1.00 47.19     0.191 A 
HETATM   28  NAA T2Q H 403     223.146 244.202 296.832  1.00 47.19    -0.105 NA
HETATM   29  OP3 T2Q H 403     222.552 245.420 296.694  1.00 47.19    -0.190 OA
BRANCH  27  30
HETATM   30  CAB T2Q H 403     223.323 242.429 298.666  1.00 47.19     0.038 A 
HETATM   31  C1  T2Q H 403     224.643 242.233 299.031  1.00 47.19     0.005 A 
HETATM   32  C6  T2Q H 403     225.031 241.025 299.586  1.00 47.19     0.025 A 
HETATM   33  C5' T2Q H 403     224.099 240.016 299.775  1.00 47.19     0.102 A 
HETATM   34  C4' T2Q H 403     222.779 240.219 299.412  1.00 47.19     0.025 A 
HETATM   35  C3  T2Q H 403     222.391 241.426 298.858  1.00 47.19     0.005 A 
BRANCH  33  36
HETATM   36  O5' T2Q H 403     224.483 238.795 300.340  1.00 47.19    -0.253 OA
BRANCH  36  37
HETATM   37  C27 T2Q H 403     224.618 237.732 299.444  1.00 47.19     0.530 C 
HETATM   38  F1  T2Q H 403     225.676 236.959 299.826  1.00 47.19    -0.144 F 
HETATM   39  F2  T2Q H 403     224.846 238.220 298.191  1.00 47.19    -0.144 F 
HETATM   40  F3  T2Q H 403     223.484 236.975 299.446  1.00 47.19    -0.144 F 
ENDBRANCH  36  37
ENDBRANCH  33  36
ENDBRANCH  27  30
ENDBRANCH   3  25
TORSDOF 8
ENDMDL
MODEL 2
REMARK VINA RESULT:     -11.8      7.679     14.478
REMARK  8 active torsions:
REMARK  status: ('A' for Active; 'I' for Inactive)
REMARK    1  A    between atoms: CAA_1  and  C5_17 
REMARK    2  A    between atoms: CAB_2  and  C7_20 
REMARK    3  A    between atoms: C5'_4  and  O5'_5 
REMARK    4  A    between atoms: O5'_5  and  C27_35 
REMARK    5  A    between atoms: C2'_8  and  C1'_9 
REMARK    6  A    between atoms: C1'_9  and  N9_22 
REMARK    7  A    between atoms: N1_11  and  C2_13 
REMARK    8  A    between atoms: S1_12  and  C23_31 
ROOT
HETATM    1  C4  T2Q H 403     222.060 252.977 298.593  1.00 47.19     0.081 A 
HETATM    2  O4  T2Q H 403     223.607 249.670 297.818  1.00 47.19    -0.171 OA
HETATM    3  C5  T2Q H 403     222.480 253.748 297.472  1.00 47.19     0.061 A 
HETATM    4  C8  T2Q H 403     223.233 251.012 297.710  1.00 47.19     0.195 A 
HETATM    5  N9  T2Q H 403     222.450 251.600 298.700  1.00 47.19    -0.301 N 
HETATM    6  C12 T2Q H 403     223.666 251.814 296.547  1.00 47.19     0.046 A 
HETATM    7  C13 T2Q H 403     223.286 253.151 296.446  1.00 47.19     0.009 A 
ENDROOT
BRANCH   5   8
HETATM    8  C1' T2Q H 403     222.014 250.835 299.845  1.00 47.19     0.135 C 
BRANCH   8   9
HETATM    9  C2' T2Q H 403     220.869 249.919 299.431  1.00 47.19     0.002 A 
HETATM   10  C16 T2Q H 403     219.660 250.457 299.041  1.00 47.19    -0.002 A 
HETATM   11  C17 T2Q H 403     218.624 249.621 298.667  1.00 47.19     0.001 A 
HETATM   12  C18 T2Q H 403     218.804 248.252 298.687  1.00 47.19     0.017 A 
HETATM   13  C2  T2Q H 403     220.014 247.713 299.073  1.00 47.19     0.056 A 
HETATM   14  C20 T2Q H 403     221.048 248.551 299.448  1.00 47.19     0.015 A 
BRANCH  13  15
HETATM   15  N1  T2Q H 403     220.198 246.276 299.098  1.00 47.19    -0.348 N 
HETATM   16  C21 T2Q H 403     219.184 245.421 299.649  1.00 47.19     0.102 C 
HETATM   17  C22 T2Q H 403     219.827 244.135 300.094  1.00 47.19     0.040 C 
HETATM   18  C23 T2Q H 403     220.345 243.367 298.894  1.00 47.19     0.112 C 
HETATM   19  C24 T2Q H 403     221.158 244.289 297.970  1.00 47.19     0.040 C 
HETATM   20  C25 T2Q H 403     221.416 245.682 298.573  1.00 47.19     0.102 C 
BRANCH  18  21
HETATM   21  S1  T2Q H 403     221.409 242.023 299.469  1.00 47.19     0.170 S 
HETATM   22  O3' T2Q H 403     222.247 241.510 298.387  1.00 47.19    -0.226 OA
HETATM   23  C26 T2Q H 403     222.404 242.596 300.872  1.00 47.19     0.140 C 
HETATM   24  OP1 T2Q H 403     220.623 240.839 299.811  1.00 47.19    -0.226 OA
ENDBRANCH  18  21
ENDBRANCH  13  15
ENDBRANCH   8   9
ENDBRANCH   5   8
BRANCH   3  25
HETATM   25  CAA T2Q H 403     222.056 255.207 297.380  1.00 47.19     0.210 A 
HETATM   26  N6  T2Q H 403     221.215 255.815 298.216  1.00 47.19    -0.199 NA
HETATM   27  C7  T2Q H 403     221.085 257.113 297.813  1.00 47.19     0.191 A 
HETATM   28  NAA T2Q H 403     221.848 257.294 296.731  1.00 47.19    -0.105 NA
HETATM   29  OP3 T2Q H 403     222.460 256.110 296.451  1.00 47.19    -0.190 OA
BRANCH  27  30
HETATM   30  CAB T2Q H 403     220.209 258.156 298.496  1.00 47.19     0.038 A 
HETATM   31  C1  T2Q H 403     219.541 257.860 299.670  1.00 47.19     0.005 A 
HETATM   32  C6  T2Q H 403     218.754 258.826 300.276  1.00 47.19     0.025 A 
HETATM   33  C5' T2Q H 403     218.636 260.084 299.706  1.00 47.19     0.102 A 
HETATM   34  C4' T2Q H 403     219.310 260.376 298.533  1.00 47.19     0.025 A 
HETATM   35  C3  T2Q H 403     220.097 259.412 297.928  1.00 47.19     0.005 A 
BRANCH  33  36
HETATM   36  O5' T2Q H 403     217.847 261.066 300.315  1.00 47.19    -0.253 OA
BRANCH  36  37
HETATM   37  C27 T2Q H 403     218.527 261.945 301.161  1.00 47.19     0.530 C 
HETATM   38  F1  T2Q H 403     217.623 262.771 301.764  1.00 47.19    -0.144 F 
HETATM   39  F2  T2Q H 403     219.404 262.692 300.430  1.00 47.19    -0.144 F 
HETATM   40  F3  T2Q H 403     219.202 261.243 302.116  1.00 47.19    -0.144 F 
ENDBRANCH  36  37
ENDBRANCH  33  36
ENDBRANCH  27  30
ENDBRANCH   3  25
TORSDOF 8
ENDMDL
MODEL 3
REMARK VINA RESULT:     -11.5      8.278     15.422
REMARK  8 active torsions:
REMARK  status: ('A' for Active; 'I' for Inactive)
REMARK    1  A    between atoms: CAA_1  and  C5_17 
REMARK    2  A    between atoms: CAB_2  and  C7_20 
REMARK    3  A    between atoms: C5'_4  and  O5'_5 
REMARK    4  A    between atoms: O5'_5  and  C27_35 
REMARK    5  A    between atoms: C2'_8  and  C1'_9 
REMARK    6  A    between atoms: C1'_9  and  N9_22 
REMARK    7  A    between atoms: N1_11  and  C2_13 
REMARK    8  A    between atoms: S1_12  and  C23_31 
ROOT
HETATM    1  C4  T2Q H 403     220.931 253.763 299.679  1.00 47.19     0.081 A 
HETATM    2  O4  T2Q H 403     223.254 251.555 297.765  1.00 47.19    -0.171 OA
HETATM    3  C5  T2Q H 403     220.948 254.941 298.879  1.00 47.19     0.061 A 
HETATM    4  C8  T2Q H 403     222.493 252.666 298.137  1.00 47.19     0.195 A 
HETATM    5  N9  T2Q H 403     221.718 252.626 299.293  1.00 47.19    -0.301 N 
HETATM    6  C12 T2Q H 403     222.508 253.890 297.309  1.00 47.19     0.046 A 
HETATM    7  C13 T2Q H 403     221.745 254.993 297.685  1.00 47.19     0.009 A 
ENDROOT
BRANCH   5   8
HETATM    8  C1' T2Q H 403     221.687 251.440 300.117  1.00 47.19     0.135 C 
BRANCH   8   9
HETATM    9  C2' T2Q H 403     220.604 250.499 299.604  1.00 47.19     0.002 A 
HETATM   10  C16 T2Q H 403     219.371 250.998 299.238  1.00 47.19    -0.002 A 
HETATM   11  C17 T2Q H 403     218.391 250.140 298.775  1.00 47.19     0.001 A 
HETATM   12  C18 T2Q H 403     218.651 248.787 298.680  1.00 47.19     0.017 A 
HETATM   13  C2  T2Q H 403     219.886 248.287 299.042  1.00 47.19     0.056 A 
HETATM   14  C20 T2Q H 403     220.863 249.148 299.507  1.00 47.19     0.015 A 
BRANCH  13  15
HETATM   15  N1  T2Q H 403     220.154 246.866 298.947  1.00 47.19    -0.348 N 
HETATM   16  C21 T2Q H 403     219.457 246.056 297.987  1.00 47.19     0.102 C 
HETATM   17  C22 T2Q H 403     219.452 244.631 298.472  1.00 47.19     0.040 C 
HETATM   18  C23 T2Q H 403     220.863 244.074 298.470  1.00 47.19     0.112 C 
HETATM   19  C24 T2Q H 403     221.834 245.055 299.148  1.00 47.19     0.040 C 
HETATM   20  C25 T2Q H 403     221.126 246.242 299.829  1.00 47.19     0.102 C 
BRANCH  18  21
HETATM   21  S1  T2Q H 403     220.878 242.510 299.376  1.00 47.19     0.170 S 
HETATM   22  O3' T2Q H 403     221.206 241.390 298.494  1.00 47.19    -0.226 OA
HETATM   23  C26 T2Q H 403     222.034 242.626 300.768  1.00 47.19     0.140 C 
HETATM   24  OP1 T2Q H 403     219.533 242.143 299.817  1.00 47.19    -0.226 OA
ENDBRANCH  18  21
ENDBRANCH  13  15
ENDBRANCH   8   9
ENDBRANCH   5   8
BRANCH   3  25
HETATM   25  CAA T2Q H 403     220.109 256.135 299.308  1.00 47.19     0.210 A 
HETATM   26  N6  T2Q H 403     220.297 257.390 298.901  1.00 47.19    -0.199 NA
HETATM   27  C7  T2Q H 403     219.350 258.173 299.498  1.00 47.19     0.191 A 
HETATM   28  NAA T2Q H 403     218.586 257.393 300.267  1.00 47.19    -0.105 NA
HETATM   29  OP3 T2Q H 403     219.050 256.118 300.157  1.00 47.19    -0.190 OA
BRANCH  27  30
HETATM   30  CAB T2Q H 403     219.213 259.678 299.304  1.00 47.19     0.038 A 
HETATM   31  C1  T2Q H 403     219.836 260.316 298.245  1.00 47.19     0.005 A 
HETATM   32  C6  T2Q H 403     219.693 261.684 298.087  1.00 47.19     0.025 A 
HETATM   33  C5' T2Q H 403     218.931 262.412 298.987  1.00 47.19     0.102 A 
HETATM   34  C4' T2Q H 403     218.308 261.769 300.042  1.00 47.19     0.025 A 
HETATM   35  C3  T2Q H 403     218.449 260.402 300.201  1.00 47.19     0.005 A 
BRANCH  33  36
HETATM   36  O5' T2Q H 403     218.779 263.795 298.829  1.00 47.19    -0.253 OA
BRANCH  36  37
HETATM   37  C27 T2Q H 403     217.602 264.202 298.196  1.00 47.19     0.530 C 
HETATM   38  F1  T2Q H 403     217.822 265.398 297.577  1.00 47.19    -0.144 F 
HETATM   39  F2  T2Q H 403     216.614 264.349 299.124  1.00 47.19    -0.144 F 
HETATM   40  F3  T2Q H 403     217.230 263.275 297.267  1.00 47.19    -0.144 F 
ENDBRANCH  36  37
ENDBRANCH  33  36
ENDBRANCH  27  30
ENDBRANCH   3  25
TORSDOF 8
ENDMDL
MODEL 4
REMARK VINA RESULT:     -11.4      8.004     15.027
REMARK  8 active torsions:
REMARK  status: ('A' for Active; 'I' for Inactive)
REMARK    1  A    between atoms: CAA_1  and  C5_17 
REMARK    2  A    between atoms: CAB_2  and  C7_20 
REMARK    3  A    between atoms: C5'_4  and  O5'_5 
REMARK    4  A    between atoms: O5'_5  and  C27_35 
REMARK    5  A    between atoms: C2'_8  and  C1'_9 
REMARK    6  A    between atoms: C1'_9  and  N9_22 
REMARK    7  A    between atoms: N1_11  and  C2_13 
REMARK    8  A    between atoms: S1_12  and  C23_31 
ROOT
HETATM    1  C4  T2Q H 403     221.404 252.566 299.594  1.00 47.19     0.081 A 
HETATM    2  O4  T2Q H 403     223.635 250.367 297.565  1.00 47.19    -0.171 OA
HETATM    3  C5  T2Q H 403     221.445 253.773 298.840  1.00 47.19     0.061 A 
HETATM    4  C8  T2Q H 403     222.912 251.485 297.990  1.00 47.19     0.195 A 
HETATM    5  N9  T2Q H 403     222.151 251.423 299.155  1.00 47.19    -0.301 N 
HETATM    6  C12 T2Q H 403     222.951 252.738 297.208  1.00 47.19     0.046 A 
HETATM    7  C13 T2Q H 403     222.225 253.847 297.637  1.00 47.19     0.009 A 
ENDROOT
BRANCH   5   8
HETATM    8  C1' T2Q H 403     222.096 250.208 299.933  1.00 47.19     0.135 C 
BRANCH   8   9
HETATM    9  C2' T2Q H 403     221.082 249.257 299.312  1.00 47.19     0.002 A 
HETATM   10  C16 T2Q H 403     219.953 249.756 298.696  1.00 47.19    -0.002 A 
HETATM   11  C17 T2Q H 403     219.035 248.889 298.134  1.00 47.19     0.001 A 
HETATM   12  C18 T2Q H 403     219.251 247.526 298.193  1.00 47.19     0.017 A 
HETATM   13  C2  T2Q H 403     220.382 247.026 298.805  1.00 47.19     0.056 A 
HETATM   14  C20 T2Q H 403     221.298 247.896 299.368  1.00 47.19     0.015 A 
BRANCH  13  15
HETATM   15  N1  T2Q H 403     220.604 245.595 298.870  1.00 47.19    -0.348 N 
HETATM   16  C21 T2Q H 403     219.623 244.681 298.355  1.00 47.19     0.102 C 
HETATM   17  C22 T2Q H 403     219.786 243.356 299.049  1.00 47.19     0.040 C 
HETATM   18  C23 T2Q H 403     221.112 242.727 298.668  1.00 47.19     0.112 C 
HETATM   19  C24 T2Q H 403     222.254 243.747 298.800  1.00 47.19     0.040 C 
HETATM   20  C25 T2Q H 403     221.819 245.066 299.466  1.00 47.19     0.102 C 
BRANCH  18  21
HETATM   21  S1  T2Q H 403     221.438 241.330 299.769  1.00 47.19     0.170 S 
HETATM   22  O3' T2Q H 403     222.127 240.250 299.064  1.00 47.19    -0.226 OA
HETATM   23  C26 T2Q H 403     222.384 241.900 301.206  1.00 47.19     0.140 C 
HETATM   24  OP1 T2Q H 403     220.196 240.670 300.164  1.00 47.19    -0.226 OA
ENDBRANCH  18  21
ENDBRANCH  13  15
ENDBRANCH   8   9
ENDBRANCH   5   8
BRANCH   3  25
HETATM   25  CAA T2Q H 403     220.646 254.974 299.325  1.00 47.19     0.210 A 
HETATM   26  N6  T2Q H 403     220.695 256.194 298.791  1.00 47.19    -0.199 NA
HETATM   27  C7  T2Q H 403     219.843 256.996 299.495  1.00 47.19     0.191 A 
HETATM   28  NAA T2Q H 403     219.275 256.263 300.457  1.00 47.19    -0.105 NA
HETATM   29  OP3 T2Q H 403     219.769 254.998 300.361  1.00 47.19    -0.190 OA
BRANCH  27  30
HETATM   30  CAB T2Q H 403     219.601 258.474 299.212  1.00 47.19     0.038 A 
HETATM   31  C1  T2Q H 403     220.129 259.074 298.082  1.00 47.19     0.005 A 
HETATM   32  C6  T2Q H 403     219.893 260.417 297.843  1.00 47.19     0.025 A 
HETATM   33  C5' T2Q H 403     219.131 261.158 298.734  1.00 47.19     0.102 A 
HETATM   34  C4' T2Q H 403     218.602 260.552 299.860  1.00 47.19     0.025 A 
HETATM   35  C3  T2Q H 403     218.838 259.209 300.099  1.00 47.19     0.005 A 
BRANCH  33  36
HETATM   36  O5' T2Q H 403     218.884 262.515 298.496  1.00 47.19    -0.253 OA
BRANCH  36  37
HETATM   37  C27 T2Q H 403     219.850 263.398 298.985  1.00 47.19     0.530 C 
HETATM   38  F1  T2Q H 403     219.459 264.677 298.720  1.00 47.19    -0.144 F 
HETATM   39  F2  T2Q H 403     221.043 263.154 298.370  1.00 47.19    -0.144 F 
HETATM   40  F3  T2Q H 403     219.984 263.239 300.333  1.00 47.19    -0.144 F 
ENDBRANCH  36  37
ENDBRANCH  33  36
ENDBRANCH  27  30
ENDBRANCH   3  25
TORSDOF 8
ENDMDL
MODEL 5
REMARK VINA RESULT:     -11.2      7.949     14.922
REMARK  8 active torsions:
REMARK  status: ('A' for Active; 'I' for Inactive)
REMARK    1  A    between atoms: CAA_1  and  C5_17 
REMARK    2  A    between atoms: CAB_2  and  C7_20 
REMARK    3  A    between atoms: C5'_4  and  O5'_5 
REMARK    4  A    between atoms: O5'_5  and  C27_35 
REMARK    5  A    between atoms: C2'_8  and  C1'_9 
REMARK    6  A    between atoms: C1'_9  and  N9_22 
REMARK    7  A    between atoms: N1_11  and  C2_13 
REMARK    8  A    between atoms: S1_12  and  C23_31 
ROOT
HETATM    1  C4  T2Q H 403     221.325 254.251 298.859  1.00 47.19     0.081 A 
HETATM    2  O4  T2Q H 403     223.172 251.090 298.135  1.00 47.19    -0.171 OA
HETATM    3  C5  T2Q H 403     221.728 255.064 297.762  1.00 47.19     0.061 A 
HETATM    4  C8  T2Q H 403     222.693 252.397 298.018  1.00 47.19     0.195 A 
HETATM    5  N9  T2Q H 403     221.823 252.910 298.976  1.00 47.19    -0.301 N 
HETATM    6  C12 T2Q H 403     223.108 253.243 296.880  1.00 47.19     0.046 A 
HETATM    7  C13 T2Q H 403     222.625 254.544 296.768  1.00 47.19     0.009 A 
ENDROOT
BRANCH   5   8
HETATM    8  C1' T2Q H 403     221.402 252.101 300.096  1.00 47.19     0.135 C 
BRANCH   8   9
HETATM    9  C2' T2Q H 403     220.450 251.018 299.605  1.00 47.19     0.002 A 
HETATM   10  C16 T2Q H 403     219.150 251.339 299.274  1.00 47.19    -0.002 A 
HETATM   11  C17 T2Q H 403     218.289 250.353 298.830  1.00 47.19     0.001 A 
HETATM   12  C18 T2Q H 403     218.734 249.050 298.721  1.00 47.19     0.017 A 
HETATM   13  C2  T2Q H 403     220.036 248.728 299.049  1.00 47.19     0.056 A 
HETATM   14  C20 T2Q H 403     220.894 249.717 299.494  1.00 47.19     0.015 A 
BRANCH  13  15
HETATM   15  N1  T2Q H 403     220.498 247.359 298.939  1.00 47.19    -0.348 N 
HETATM   16  C21 T2Q H 403     219.851 246.310 299.675  1.00 47.19     0.102 C 
HETATM   17  C22 T2Q H 403     220.827 245.180 299.865  1.00 47.19     0.040 C 
HETATM   18  C23 T2Q H 403     221.156 244.544 298.528  1.00 47.19     0.112 C 
HETATM   19  C24 T2Q H 403     221.503 245.621 297.487  1.00 47.19     0.040 C 
HETATM   20  C25 T2Q H 403     221.631 247.033 298.089  1.00 47.19     0.102 C 
BRANCH  18  21
HETATM   21  S1  T2Q H 403     222.575 243.443 298.734  1.00 47.19     0.170 S 
HETATM   22  O3' T2Q H 403     223.093 243.497 300.101  1.00 47.19    -0.226 OA
HETATM   23  C26 T2Q H 403     222.107 241.757 298.264  1.00 47.19     0.140 C 
HETATM   24  OP1 T2Q H 403     223.727 243.920 297.971  1.00 47.19    -0.226 OA
ENDBRANCH  18  21
ENDBRANCH  13  15
ENDBRANCH   8   9
ENDBRANCH   5   8
BRANCH   3  25
HETATM   25  CAA T2Q H 403     221.189 256.483 297.659  1.00 47.19     0.210 A 
HETATM   26  N6  T2Q H 403     220.606 257.155 298.651  1.00 47.19    -0.199 NA
HETATM   27  C7  T2Q H 403     220.261 258.390 298.178  1.00 47.19     0.191 A 
HETATM   28  NAA T2Q H 403     220.636 258.467 296.898  1.00 47.19    -0.105 NA
HETATM   29  OP3 T2Q H 403     221.217 257.283 296.563  1.00 47.19    -0.190 OA
BRANCH  27  30
HETATM   30  CAB T2Q H 403     219.565 259.473 298.993  1.00 47.19     0.038 A 
HETATM   31  C1  T2Q H 403     219.494 260.774 298.526  1.00 47.19     0.005 A 
HETATM   32  C6  T2Q H 403     218.853 261.741 299.282  1.00 47.19     0.025 A 
HETATM   33  C5' T2Q H 403     218.285 261.407 300.501  1.00 47.19     0.102 A 
HETATM   34  C4' T2Q H 403     218.356 260.103 300.962  1.00 47.19     0.025 A 
HETATM   35  C3  T2Q H 403     218.996 259.136 300.207  1.00 47.19     0.005 A 
BRANCH  33  36
HETATM   36  O5' T2Q H 403     217.631 262.379 301.268  1.00 47.19    -0.253 OA
BRANCH  36  37
HETATM   37  C27 T2Q H 403     216.332 262.692 300.860  1.00 47.19     0.530 C 
HETATM   38  F1  T2Q H 403     216.165 264.045 300.910  1.00 47.19    -0.144 F 
HETATM   39  F2  T2Q H 403     215.436 262.095 301.697  1.00 47.19    -0.144 F 
HETATM   40  F3  T2Q H 403     216.130 262.261 299.582  1.00 47.19    -0.144 F 
ENDBRANCH  36  37
ENDBRANCH  33  36
ENDBRANCH  27  30
ENDBRANCH   3  25
TORSDOF 8
ENDMDL
MODEL 6
REMARK VINA RESULT:     -11.1      7.113     14.129
REMARK  8 active torsions:
REMARK  status: ('A' for Active; 'I' for Inactive)
REMARK    1  A    between atoms: CAA_1  and  C5_17 
REMARK    2  A    between atoms: CAB_2  and  C7_20 
REMARK    3  A    between atoms: C5'_4  and  O5'_5 
REMARK    4  A    between atoms: O5'_5  and  C27_35 
REMARK    5  A    between atoms: C2'_8  and  C1'_9 
REMARK    6  A    between atoms: C1'_9  and  N9_22 
REMARK    7  A    between atoms: N1_11  and  C2_13 
REMARK    8  A    between atoms: S1_12  and  C23_31 
ROOT
HETATM    1  C4  T2Q H 403     220.898 249.431 298.102  1.00 47.19     0.081 A 
HETATM    2  O4  T2Q H 403     223.383 247.098 296.581  1.00 47.19    -0.171 OA
HETATM    3  C5  T2Q H 403     221.740 250.505 298.508  1.00 47.19     0.061 A 
HETATM    4  C8  T2Q H 403     222.836 248.216 297.215  1.00 47.19     0.195 A 
HETATM    5  N9  T2Q H 403     221.465 248.283 297.454  1.00 47.19    -0.301 N 
HETATM    6  C12 T2Q H 403     223.707 249.333 297.637  1.00 47.19     0.046 A 
HETATM    7  C13 T2Q H 403     223.154 250.446 298.266  1.00 47.19     0.009 A 
ENDROOT
BRANCH   5   8
HETATM    8  C1' T2Q H 403     220.595 247.205 297.048  1.00 47.19     0.135 C 
BRANCH   8   9
HETATM    9  C2' T2Q H 403     220.411 246.241 298.213  1.00 47.19     0.002 A 
HETATM   10  C16 T2Q H 403     219.352 246.401 299.083  1.00 47.19    -0.002 A 
HETATM   11  C17 T2Q H 403     219.190 245.525 300.140  1.00 47.19     0.001 A 
HETATM   12  C18 T2Q H 403     220.090 244.493 300.320  1.00 47.19     0.017 A 
HETATM   13  C2  T2Q H 403     221.147 244.329 299.449  1.00 47.19     0.056 A 
HETATM   14  C20 T2Q H 403     221.308 245.208 298.394  1.00 47.19     0.015 A 
BRANCH  13  15
HETATM   15  N1  T2Q H 403     222.093 243.248 299.644  1.00 47.19    -0.348 N 
HETATM   16  C21 T2Q H 403     221.926 242.000 298.954  1.00 47.19     0.102 C 
HETATM   17  C22 T2Q H 403     222.619 240.918 299.738  1.00 47.19     0.040 C 
HETATM   18  C23 T2Q H 403     224.118 241.146 299.731  1.00 47.19     0.112 C 
HETATM   19  C24 T2Q H 403     224.446 242.606 300.084  1.00 47.19     0.040 C 
HETATM   20  C25 T2Q H 403     223.218 243.412 300.549  1.00 47.19     0.102 C 
BRANCH  18  21
HETATM   21  S1  T2Q H 403     224.884 240.057 300.953  1.00 47.19     0.170 S 
HETATM   22  O3' T2Q H 403     224.282 240.236 302.273  1.00 47.19    -0.226 OA
HETATM   23  C26 T2Q H 403     224.766 238.337 300.392  1.00 47.19     0.140 C 
HETATM   24  OP1 T2Q H 403     226.268 240.448 301.213  1.00 47.19    -0.226 OA
ENDBRANCH  18  21
ENDBRANCH  13  15
ENDBRANCH   8   9
ENDBRANCH   5   8
BRANCH   3  25
HETATM   25  CAA T2Q H 403     221.117 251.711 299.195  1.00 47.19     0.210 A 
HETATM   26  N6  T2Q H 403     221.236 252.973 298.785  1.00 47.19    -0.199 NA
HETATM   27  C7  T2Q H 403     220.540 253.766 299.653  1.00 47.19     0.191 A 
HETATM   28  NAA T2Q H 403     219.998 252.984 300.591  1.00 47.19    -0.105 NA
HETATM   29  OP3 T2Q H 403     220.351 251.698 300.316  1.00 47.19    -0.190 OA
BRANCH  27  30
HETATM   30  CAB T2Q H 403     220.421 255.281 299.548  1.00 47.19     0.038 A 
HETATM   31  C1  T2Q H 403     221.437 256.034 298.986  1.00 47.19     0.005 A 
HETATM   32  C6  T2Q H 403     221.305 257.409 298.897  1.00 47.19     0.025 A 
HETATM   33  C5' T2Q H 403     220.160 258.030 299.371  1.00 47.19     0.102 A 
HETATM   34  C4' T2Q H 403     219.144 257.271 299.928  1.00 47.19     0.025 A 
HETATM   35  C3  T2Q H 403     219.275 255.897 300.016  1.00 47.19     0.005 A 
BRANCH  33  36
HETATM   36  O5' T2Q H 403     220.018 259.419 299.279  1.00 47.19    -0.253 OA
BRANCH  36  37
HETATM   37  C27 T2Q H 403     219.903 259.928 297.983  1.00 47.19     0.530 C 
HETATM   38  F1  T2Q H 403     221.143 260.275 297.530  1.00 47.19    -0.144 F 
HETATM   39  F2  T2Q H 403     219.102 261.032 297.997  1.00 47.19    -0.144 F 
HETATM   40  F3  T2Q H 403     219.371 258.981 297.157  1.00 47.19    -0.144 F 
ENDBRANCH  36  37
ENDBRANCH  33  36
ENDBRANCH  27  30
ENDBRANCH   3  25
TORSDOF 8
ENDMDL
MODEL 7
REMARK VINA RESULT:     -11.1      6.958     14.180
REMARK  8 active torsions:
REMARK  status: ('A' for Active; 'I' for Inactive)
REMARK    1  A    between atoms: CAA_1  and  C5_17 
REMARK    2  A    between atoms: CAB_2  and  C7_20 
REMARK    3  A    between atoms: C5'_4  and  O5'_5 
REMARK    4  A    between atoms: O5'_5  and  C27_35 
REMARK    5  A    between atoms: C2'_8  and  C1'_9 
REMARK    6  A    between atoms: C1'_9  and  N9_22 
REMARK    7  A    between atoms: N1_11  and  C2_13 
REMARK    8  A    between atoms: S1_12  and  C23_31 
ROOT
HETATM    1  C4  T2Q H 403     221.263 247.740 299.624  1.00 47.19     0.081 A 
HETATM    2  O4  T2Q H 403     219.188 245.025 298.122  1.00 47.19    -0.171 OA
HETATM    3  C5  T2Q H 403     220.638 248.898 299.080  1.00 47.19     0.061 A 
HETATM    4  C8  T2Q H 403     219.670 246.297 298.441  1.00 47.19     0.195 A 
HETATM    5  N9  T2Q H 403     220.765 246.436 299.290  1.00 47.19    -0.301 N 
HETATM    6  C12 T2Q H 403     219.024 247.501 297.879  1.00 47.19     0.046 A 
HETATM    7  C13 T2Q H 403     219.509 248.766 298.204  1.00 47.19     0.009 A 
ENDROOT
BRANCH   5   8
HETATM    8  C1' T2Q H 403     221.412 245.273 299.852  1.00 47.19     0.135 C 
BRANCH   8   9
HETATM    9  C2' T2Q H 403     222.386 244.697 298.833  1.00 47.19     0.002 A 
HETATM   10  C16 T2Q H 403     222.597 245.347 297.635  1.00 47.19    -0.002 A 
HETATM   11  C17 T2Q H 403     223.482 244.820 296.712  1.00 47.19     0.001 A 
HETATM   12  C18 T2Q H 403     224.151 243.645 296.995  1.00 47.19     0.017 A 
HETATM   13  C2  T2Q H 403     223.943 242.996 298.196  1.00 47.19     0.056 A 
HETATM   14  C20 T2Q H 403     223.057 243.525 299.115  1.00 47.19     0.015 A 
BRANCH  13  15
HETATM   15  N1  T2Q H 403     224.642 241.761 298.487  1.00 47.19    -0.348 N 
HETATM   16  C21 T2Q H 403     225.425 241.109 297.474  1.00 47.19     0.102 C 
HETATM   17  C22 T2Q H 403     225.527 239.646 297.810  1.00 47.19     0.040 C 
HETATM   18  C23 T2Q H 403     226.335 239.456 299.079  1.00 47.19     0.112 C 
HETATM   19  C24 T2Q H 403     225.844 240.409 300.181  1.00 47.19     0.040 C 
HETATM   20  C25 T2Q H 403     224.553 241.160 299.808  1.00 47.19     0.102 C 
BRANCH  18  21
HETATM   21  S1  T2Q H 403     226.145 237.750 299.647  1.00 47.19     0.170 S 
HETATM   22  O3' T2Q H 403     226.679 237.579 300.997  1.00 47.19    -0.226 OA
HETATM   23  C26 T2Q H 403     224.400 237.269 299.551  1.00 47.19     0.140 C 
HETATM   24  OP1 T2Q H 403     227.000 236.843 298.883  1.00 47.19    -0.226 OA
ENDBRANCH  18  21
ENDBRANCH  13  15
ENDBRANCH   8   9
ENDBRANCH   5   8
BRANCH   3  25
HETATM   25  CAA T2Q H 403     221.184 250.270 299.445  1.00 47.19     0.210 A 
HETATM   26  N6  T2Q H 403     220.747 251.426 298.948  1.00 47.19    -0.199 NA
HETATM   27  C7  T2Q H 403     221.477 252.432 299.515  1.00 47.19     0.191 A 
HETATM   28  NAA T2Q H 403     222.358 251.887 300.357  1.00 47.19    -0.105 NA
HETATM   29  OP3 T2Q H 403     222.185 250.536 300.323  1.00 47.19    -0.190 OA
BRANCH  27  30
HETATM   30  CAB T2Q H 403     221.298 253.916 299.216  1.00 47.19     0.038 A 
HETATM   31  C1  T2Q H 403     222.094 254.551 298.279  1.00 47.19     0.005 A 
HETATM   32  C6  T2Q H 403     221.910 255.898 298.021  1.00 47.19     0.025 A 
HETATM   33  C5' T2Q H 403     220.933 256.609 298.700  1.00 47.19     0.102 A 
HETATM   34  C4' T2Q H 403     220.137 255.969 299.634  1.00 47.19     0.025 A 
HETATM   35  C3  T2Q H 403     220.320 254.621 299.892  1.00 47.19     0.005 A 
BRANCH  33  36
HETATM   36  O5' T2Q H 403     220.739 257.971 298.441  1.00 47.19    -0.253 OA
BRANCH  36  37
HETATM   37  C27 T2Q H 403     220.075 258.267 297.248  1.00 47.19     0.530 C 
HETATM   38  F1  T2Q H 403     220.983 258.292 296.229  1.00 47.19    -0.144 F 
HETATM   39  F2  T2Q H 403     219.478 259.489 297.350  1.00 47.19    -0.144 F 
HETATM   40  F3  T2Q H 403     219.135 257.313 296.990  1.00 47.19    -0.144 F 
ENDBRANCH  36  37
ENDBRANCH  33  36
ENDBRANCH  27  30
ENDBRANCH   3  25
TORSDOF 8
ENDMDL
MODEL 8
REMARK VINA RESULT:     -11.1      1.666      1.980
REMARK  8 active torsions:
REMARK  status: ('A' for Active; 'I' for Inactive)
REMARK    1  A    between atoms: CAA_1  and  C5_17 
REMARK    2  A    between atoms: CAB_2  and  C7_20 
REMARK    3  A    between atoms: C5'_4  and  O5'_5 
REMARK    4  A    between atoms: O5'_5  and  C27_35 
REMARK    5  A    between atoms: C2'_8  and  C1'_9 
REMARK    6  A    between atoms: C1'_9  and  N9_22 
REMARK    7  A    between atoms: N1_11  and  C2_13 
REMARK    8  A    between atoms: S1_12  and  C23_31 
ROOT
HETATM    1  C4  T2Q H 403     221.111 246.707 299.790  1.00 47.19     0.081 A 
HETATM    2  O4  T2Q H 403     219.491 249.693 298.242  1.00 47.19    -0.171 OA
HETATM    3  C5  T2Q H 403     220.437 245.648 299.118  1.00 47.19     0.061 A 
HETATM    4  C8  T2Q H 403     219.807 248.364 298.535  1.00 47.19     0.195 A 
HETATM    5  N9  T2Q H 403     220.781 248.070 299.487  1.00 47.19    -0.301 N 
HETATM    6  C12 T2Q H 403     219.110 247.262 297.839  1.00 47.19     0.046 A 
HETATM    7  C13 T2Q H 403     219.432 245.939 298.135  1.00 47.19     0.009 A 
ENDROOT
BRANCH   5   8
HETATM    8  C1' T2Q H 403     221.476 249.131 300.178  1.00 47.19     0.135 C 
BRANCH   8   9
HETATM    9  C2' T2Q H 403     222.012 250.128 299.160  1.00 47.19     0.002 A 
HETATM   10  C16 T2Q H 403     222.842 249.701 298.144  1.00 47.19    -0.002 A 
HETATM   11  C17 T2Q H 403     223.327 250.610 297.223  1.00 47.19     0.001 A 
HETATM   12  C18 T2Q H 403     222.978 251.943 297.324  1.00 47.19     0.017 A 
HETATM   13  C2  T2Q H 403     222.145 252.371 298.337  1.00 47.19     0.056 A 
HETATM   14  C20 T2Q H 403     221.663 251.459 299.258  1.00 47.19     0.015 A 
BRANCH  13  15
HETATM   15  N1  T2Q H 403     221.785 253.771 298.443  1.00 47.19    -0.348 N 
HETATM   16  C21 T2Q H 403     220.851 254.210 299.442  1.00 47.19     0.102 C 
HETATM   17  C22 T2Q H 403     220.218 255.495 298.980  1.00 47.19     0.040 C 
HETATM   18  C23 T2Q H 403     221.255 256.600 298.934  1.00 47.19     0.112 C 
HETATM   19  C24 T2Q H 403     222.522 256.125 298.204  1.00 47.19     0.040 C 
HETATM   20  C25 T2Q H 403     222.359 254.748 297.533  1.00 47.19     0.102 C 
BRANCH  18  21
HETATM   21  S1  T2Q H 403     220.564 258.019 298.053  1.00 47.19     0.170 S 
HETATM   22  O3' T2Q H 403     221.578 259.047 297.824  1.00 47.19    -0.226 OA
HETATM   23  C26 T2Q H 403     219.815 257.461 296.499  1.00 47.19     0.140 C 
HETATM   24  OP1 T2Q H 403     219.605 258.741 298.887  1.00 47.19    -0.226 OA
ENDBRANCH  18  21
ENDBRANCH  13  15
ENDBRANCH   8   9
ENDBRANCH   5   8
BRANCH   3  25
HETATM   25  CAA T2Q H 403     220.802 244.210 299.456  1.00 47.19     0.210 A 
HETATM   26  N6  T2Q H 403     221.989 243.648 299.233  1.00 47.19    -0.199 NA
HETATM   27  C7  T2Q H 403     221.933 242.355 299.670  1.00 47.19     0.191 A 
HETATM   28  NAA T2Q H 403     220.710 242.132 300.160  1.00 47.19    -0.105 NA
HETATM   29  OP3 T2Q H 403     219.994 243.283 300.032  1.00 47.19    -0.190 OA
BRANCH  27  30
HETATM   30  CAB T2Q H 403     223.082 241.357 299.597  1.00 47.19     0.038 A 
HETATM   31  C1  T2Q H 403     223.887 241.121 300.697  1.00 47.19     0.005 A 
HETATM   32  C6  T2Q H 403     224.922 240.207 300.608  1.00 47.19     0.025 A 
HETATM   33  C5' T2Q H 403     225.153 239.531 299.420  1.00 47.19     0.102 A 
HETATM   34  C4' T2Q H 403     224.342 239.768 298.323  1.00 47.19     0.025 A 
HETATM   35  C3  T2Q H 403     223.306 240.681 298.412  1.00 47.19     0.005 A 
BRANCH  33  36
HETATM   36  O5' T2Q H 403     226.195 238.601 299.324  1.00 47.19    -0.253 OA
BRANCH  36  37
HETATM   37  C27 T2Q H 403     225.933 237.345 299.877  1.00 47.19     0.530 C 
HETATM   38  F1  T2Q H 403     226.544 236.390 299.118  1.00 47.19    -0.144 F 
HETATM   39  F2  T2Q H 403     224.587 237.123 299.884  1.00 47.19    -0.144 F 
HETATM   40  F3  T2Q H 403     226.418 237.287 301.150  1.00 47.19    -0.144 F 
ENDBRANCH  36  37
ENDBRANCH  33  36
ENDBRANCH  27  30
ENDBRANCH   3  25
TORSDOF 8
ENDMDL
MODEL 9
REMARK VINA RESULT:     -11.0      8.315     15.375
REMARK  8 active torsions:
REMARK  status: ('A' for Active; 'I' for Inactive)
REMARK    1  A    between atoms: CAA_1  and  C5_17 
REMARK    2  A    between atoms: CAB_2  and  C7_20 
REMARK    3  A    between atoms: C5'_4  and  O5'_5 
REMARK    4  A    between atoms: O5'_5  and  C27_35 
REMARK    5  A    between atoms: C2'_8  and  C1'_9 
REMARK    6  A    between atoms: C1'_9  and  N9_22 
REMARK    7  A    between atoms: N1_11  and  C2_13 
REMARK    8  A    between atoms: S1_12  and  C23_31 
ROOT
HETATM    1  C4  T2Q H 403     220.839 253.879 299.654  1.00 47.19     0.081 A 
HETATM    2  O4  T2Q H 403     223.192 251.697 297.747  1.00 47.19    -0.171 OA
HETATM    3  C5  T2Q H 403     220.857 255.062 298.862  1.00 47.19     0.061 A 
HETATM    4  C8  T2Q H 403     222.421 252.801 298.119  1.00 47.19     0.195 A 
HETATM    5  N9  T2Q H 403     221.635 252.749 299.268  1.00 47.19    -0.301 N 
HETATM    6  C12 T2Q H 403     222.436 254.031 297.299  1.00 47.19     0.046 A 
HETATM    7  C13 T2Q H 403     221.663 255.127 297.676  1.00 47.19     0.009 A 
ENDROOT
BRANCH   5   8
HETATM    8  C1' T2Q H 403     221.604 251.558 300.084  1.00 47.19     0.135 C 
BRANCH   8   9
HETATM    9  C2' T2Q H 403     220.783 250.487 299.379  1.00 47.19     0.002 A 
HETATM   10  C16 T2Q H 403     219.423 250.652 299.219  1.00 47.19    -0.002 A 
HETATM   11  C17 T2Q H 403     218.681 249.676 298.579  1.00 47.19     0.001 A 
HETATM   12  C18 T2Q H 403     219.306 248.540 298.104  1.00 47.19     0.017 A 
HETATM   13  C2  T2Q H 403     220.667 248.375 298.260  1.00 47.19     0.056 A 
HETATM   14  C20 T2Q H 403     221.406 249.352 298.901  1.00 47.19     0.015 A 
BRANCH  13  15
HETATM   15  N1  T2Q H 403     221.319 247.179 297.764  1.00 47.19    -0.348 N 
HETATM   16  C21 T2Q H 403     222.602 247.260 297.125  1.00 47.19     0.102 C 
HETATM   17  C22 T2Q H 403     222.765 246.072 296.216  1.00 47.19     0.040 C 
HETATM   18  C23 T2Q H 403     222.839 244.796 297.033  1.00 47.19     0.112 C 
HETATM   19  C24 T2Q H 403     221.707 244.751 298.072  1.00 47.19     0.040 C 
HETATM   20  C25 T2Q H 403     220.677 245.883 297.901  1.00 47.19     0.102 C 
BRANCH  18  21
HETATM   21  S1  T2Q H 403     222.679 243.378 295.924  1.00 47.19     0.170 S 
HETATM   22  O3' T2Q H 403     223.951 242.671 295.779  1.00 47.19    -0.226 OA
HETATM   23  C26 T2Q H 403     221.370 242.280 296.529  1.00 47.19     0.140 C 
HETATM   24  OP1 T2Q H 403     222.431 243.809 294.549  1.00 47.19    -0.226 OA
ENDBRANCH  18  21
ENDBRANCH  13  15
ENDBRANCH   8   9
ENDBRANCH   5   8
BRANCH   3  25
HETATM   25  CAA T2Q H 403     220.007 256.249 299.291  1.00 47.19     0.210 A 
HETATM   26  N6  T2Q H 403     220.204 257.511 298.911  1.00 47.19    -0.199 NA
HETATM   27  C7  T2Q H 403     219.243 258.284 299.498  1.00 47.19     0.191 A 
HETATM   28  NAA T2Q H 403     218.460 257.491 300.235  1.00 47.19    -0.105 NA
HETATM   29  OP3 T2Q H 403     218.927 256.217 300.113  1.00 47.19    -0.190 OA
BRANCH  27  30
HETATM   30  CAB T2Q H 403     219.110 259.792 299.327  1.00 47.19     0.038 A 
HETATM   31  C1  T2Q H 403     218.328 260.537 300.192  1.00 47.19     0.005 A 
HETATM   32  C6  T2Q H 403     218.226 261.907 300.020  1.00 47.19     0.025 A 
HETATM   33  C5' T2Q H 403     218.905 262.530 298.984  1.00 47.19     0.102 A 
HETATM   34  C4' T2Q H 403     219.690 261.780 298.124  1.00 47.19     0.025 A 
HETATM   35  C3  T2Q H 403     219.792 260.411 298.296  1.00 47.19     0.005 A 
BRANCH  33  36
HETATM   36  O5' T2Q H 403     218.811 263.915 298.808  1.00 47.19    -0.253 OA
BRANCH  36  37
HETATM   37  C27 T2Q H 403     218.023 264.332 297.732  1.00 47.19     0.530 C 
HETATM   38  F1  T2Q H 403     217.325 265.446 298.098  1.00 47.19    -0.144 F 
HETATM   39  F2  T2Q H 403     217.148 263.341 297.397  1.00 47.19    -0.144 F 
HETATM   40  F3  T2Q H 403     218.816 264.630 296.663  1.00 47.19    -0.144 F 
ENDBRANCH  36  37
ENDBRANCH  33  36
ENDBRANCH  27  30
ENDBRANCH   3  25
TORSDOF 8
ENDMDL
MODEL 10
REMARK VINA RESULT:     -11.0      6.936     14.017
REMARK  8 active torsions:
REMARK  status: ('A' for Active; 'I' for Inactive)
REMARK    1  A    between atoms: CAA_1  and  C5_17 
REMARK    2  A    between atoms: CAB_2  and  C7_20 
REMARK    3  A    between atoms: C5'_4  and  O5'_5 
REMARK    4  A    between atoms: O5'_5  and  C27_35 
REMARK    5  A    between atoms: C2'_8  and  C1'_9 
REMARK    6  A    between atoms: C1'_9  and  N9_22 
REMARK    7  A    between atoms: N1_11  and  C2_13 
REMARK    8  A    between atoms: S1_12  and  C23_31 
ROOT
HETATM    1  C4  T2Q H 403     221.394 247.705 297.822  1.00 47.19     0.081 A 
HETATM    2  O4  T2Q H 403     220.191 245.151 300.264  1.00 47.19    -0.171 OA
HETATM    3  C5  T2Q H 403     221.708 248.789 298.689  1.00 47.19     0.061 A 
HETATM    4  C8  T2Q H 403     220.690 246.346 299.739  1.00 47.19     0.195 A 
HETATM    5  N9  T2Q H 403     220.879 246.480 298.366  1.00 47.19    -0.301 N 
HETATM    6  C12 T2Q H 403     221.017 247.473 300.636  1.00 47.19     0.046 A 
HETATM    7  C13 T2Q H 403     221.516 248.661 300.106  1.00 47.19     0.009 A 
ENDROOT
BRANCH   5   8
HETATM    8  C1' T2Q H 403     220.568 245.391 297.471  1.00 47.19     0.135 C 
BRANCH   8   9
HETATM    9  C2' T2Q H 403     221.859 244.702 297.049  1.00 47.19     0.002 A 
HETATM   10  C16 T2Q H 403     222.567 245.168 295.960  1.00 47.19    -0.002 A 
HETATM   11  C17 T2Q H 403     223.738 244.538 295.580  1.00 47.19     0.001 A 
HETATM   12  C18 T2Q H 403     224.192 243.445 296.292  1.00 47.19     0.017 A 
HETATM   13  C2  T2Q H 403     223.487 242.981 297.383  1.00 47.19     0.056 A 
HETATM   14  C20 T2Q H 403     222.315 243.612 297.759  1.00 47.19     0.015 A 
BRANCH  13  15
HETATM   15  N1  T2Q H 403     223.963 241.830 298.124  1.00 47.19    -0.348 N 
HETATM   16  C21 T2Q H 403     225.064 241.957 299.038  1.00 47.19     0.102 C 
HETATM   17  C22 T2Q H 403     225.718 240.611 299.196  1.00 47.19     0.040 C 
HETATM   18  C23 T2Q H 403     224.772 239.648 299.888  1.00 47.19     0.112 C 
HETATM   19  C24 T2Q H 403     223.381 239.694 299.236  1.00 47.19     0.040 C 
HETATM   20  C25 T2Q H 403     223.339 240.530 297.944  1.00 47.19     0.102 C 
BRANCH  18  21
HETATM   21  S1  T2Q H 403     225.435 237.972 299.748  1.00 47.19     0.170 S 
HETATM   22  O3' T2Q H 403     224.361 236.985 299.640  1.00 47.19    -0.226 OA
HETATM   23  C26 T2Q H 403     226.569 237.883 298.337  1.00 47.19     0.140 C 
HETATM   24  OP1 T2Q H 403     226.082 237.556 300.991  1.00 47.19    -0.226 OA
ENDBRANCH  18  21
ENDBRANCH  13  15
ENDBRANCH   8   9
ENDBRANCH   5   8
BRANCH   3  25
HETATM   25  CAA T2Q H 403     222.250 250.079 298.090  1.00 47.19     0.210 A 
HETATM   26  N6  T2Q H 403     221.790 251.301 298.356  1.00 47.19    -0.199 NA
HETATM   27  C7  T2Q H 403     222.528 252.196 297.634  1.00 47.19     0.191 A 
HETATM   28  NAA T2Q H 403     223.437 251.516 296.929  1.00 47.19    -0.105 NA
HETATM   29  OP3 T2Q H 403     223.274 250.193 297.206  1.00 47.19    -0.190 OA
BRANCH  27  30
HETATM   30  CAB T2Q H 403     222.325 253.705 297.647  1.00 47.19     0.038 A 
HETATM   31  C1  T2Q H 403     222.888 254.504 296.667  1.00 47.19     0.005 A 
HETATM   32  C6  T2Q H 403     222.686 255.873 296.697  1.00 47.19     0.025 A 
HETATM   33  C5' T2Q H 403     221.924 256.442 297.705  1.00 47.19     0.102 A 
HETATM   34  C4' T2Q H 403     221.360 255.638 298.680  1.00 47.19     0.025 A 
HETATM   35  C3  T2Q H 403     221.560 254.270 298.651  1.00 47.19     0.005 A 
BRANCH  33  36
HETATM   36  O5' T2Q H 403     221.712 257.825 297.738  1.00 47.19    -0.253 OA
BRANCH  36  37
HETATM   37  C27 T2Q H 403     220.584 258.277 297.047  1.00 47.19     0.530 C 
HETATM   38  F1  T2Q H 403     220.875 259.472 296.456  1.00 47.19    -0.144 F 
HETATM   39  F2  T2Q H 403     219.553 258.447 297.923  1.00 47.19    -0.144 F 
HETATM   40  F3  T2Q H 403     220.233 257.374 296.088  1.00 47.19    -0.144 F 
ENDBRANCH  36  37
ENDBRANCH  33  36
ENDBRANCH  27  30
ENDBRANCH   3  25
TORSDOF 8
ENDMDL
