MODEL 1
REMARK VINA RESULT:     -10.3      0.000      0.000
REMARK  11 active torsions:
REMARK  status: ('A' for Active; 'I' for Inactive)
REMARK    1  A    between atoms: C_3  and  C_6 
REMARK    2  A    between atoms: C_5  and  C_18 
REMARK    3  A    between atoms: C_7  and  C_8 
REMARK    4  A    between atoms: C_11  and  C_14 
REMARK    5  A    between atoms: C_18  and  O_19 
REMARK    6  A    between atoms: O_19  and  C_20 
REMARK    7  A    between atoms: C_23  and  C_26 
REMARK    8  A    between atoms: C_26  and  C_27 
REMARK    9  A    between atoms: C_27  and  C_28 
REMARK   10  A    between atoms: C_28  and  C_29 
REMARK   11  A    between atoms: C_29  and  N_30 
ROOT
HETATM    1  C   UNL     1     219.186 248.597 298.254  1.00  0.00     0.173 A 
HETATM    2  O   UNL     1     219.514 247.268 298.308  1.00  0.00    -0.302 OA
HETATM    3  C   UNL     1     220.532 247.190 299.242  1.00  0.00     0.169 A 
HETATM    4  N   UNL     1     220.835 248.376 299.733  1.00  0.00    -0.225 NA
HETATM    5  C   UNL     1     219.985 249.275 299.139  1.00  0.00     0.083 A 
ENDROOT
BRANCH   5   6
HETATM    6  C   UNL     1     220.115 250.685 299.585  1.00  0.00     0.237 C 
BRANCH   6   7
HETATM    7  O   UNL     1     221.439 251.173 299.803  1.00  0.00    -0.345 OA
BRANCH   7   8
HETATM    8  C   UNL     1     221.731 252.310 299.078  1.00  0.00     0.069 A 
HETATM    9  C   UNL     1     221.363 253.616 299.419  1.00  0.00     0.037 A 
HETATM   10  C   UNL     1     221.713 254.694 298.601  1.00  0.00     0.010 A 
HETATM   11  C   UNL     1     222.438 254.501 297.418  1.00  0.00    -0.058 A 
HETATM   12  C   UNL     1     222.808 253.193 297.082  1.00  0.00     0.010 A 
HETATM   13  C   UNL     1     222.455 252.109 297.903  1.00  0.00     0.037 A 
BRANCH  11  14
HETATM   14  C   UNL     1     222.748 255.723 296.579  1.00  0.00     0.038 C 
BRANCH  14  15
HETATM   15  C   UNL     1     222.094 257.042 297.003  1.00  0.00     0.006 C 
BRANCH  15  16
HETATM   16  C   UNL     1     220.781 257.284 296.249  1.00  0.00     0.022 C 
BRANCH  16  17
HETATM   17  C   UNL     1     219.977 258.416 296.896  1.00  0.00     0.146 C 
BRANCH  17  18
HETATM   18  N   UNL     1     219.445 258.141 298.215  1.00  0.00    -0.284 N 
HETATM   19  N   UNL     1     218.965 256.934 298.559  1.00  0.00     0.004 NA
HETATM   20  N   UNL     1     218.576 257.004 299.826  1.00  0.00    -0.171 NA
HETATM   21  C   UNL     1     218.823 258.269 300.275  1.00  0.00     0.154 A 
HETATM   22  C   UNL     1     219.376 259.013 299.264  1.00  0.00     0.128 A 
ENDBRANCH  17  18
ENDBRANCH  16  17
ENDBRANCH  15  16
ENDBRANCH  14  15
ENDBRANCH  11  14
ENDBRANCH   7   8
ENDBRANCH   6   7
ENDBRANCH   5   6
BRANCH   3  23
HETATM   23  C   UNL     1     221.214 246.036 299.701  1.00  0.00     0.059 C 
HETATM   24  C   UNL     1     221.606 244.978 298.986  1.00  0.00     0.015 C 
BRANCH  24  25
HETATM   25  C   UNL     1     222.265 243.811 299.628  1.00  0.00    -0.036 A 
HETATM   26  C   UNL     1     223.641 243.613 299.466  1.00  0.00     0.012 A 
HETATM   27  C   UNL     1     224.296 242.554 300.115  1.00  0.00     0.017 A 
HETATM   28  C   UNL     1     223.590 241.674 300.949  1.00  0.00     0.048 A 
HETATM   29  C   UNL     1     222.206 241.823 301.054  1.00  0.00     0.017 A 
HETATM   30  C   UNL     1     221.558 242.871 300.401  1.00  0.00     0.012 A 
BRANCH  28  31
HETATM   31  C   UNL     1     224.289 240.584 301.721  1.00  0.00     0.417 C 
HETATM   32  F   UNL     1     224.287 239.390 301.069  1.00  0.00    -0.166 F 
HETATM   33  F   UNL     1     225.596 240.870 301.980  1.00  0.00    -0.166 F 
HETATM   34  F   UNL     1     223.718 240.346 302.936  1.00  0.00    -0.166 F 
ENDBRANCH  28  31
ENDBRANCH  24  25
ENDBRANCH   3  23
TORSDOF 11
ENDMDL
MODEL 2
REMARK VINA RESULT:     -10.2      6.290     13.342
REMARK  11 active torsions:
REMARK  status: ('A' for Active; 'I' for Inactive)
REMARK    1  A    between atoms: C_3  and  C_6 
REMARK    2  A    between atoms: C_5  and  C_18 
REMARK    3  A    between atoms: C_7  and  C_8 
REMARK    4  A    between atoms: C_11  and  C_14 
REMARK    5  A    between atoms: C_18  and  O_19 
REMARK    6  A    between atoms: O_19  and  C_20 
REMARK    7  A    between atoms: C_23  and  C_26 
REMARK    8  A    between atoms: C_26  and  C_27 
REMARK    9  A    between atoms: C_27  and  C_28 
REMARK   10  A    between atoms: C_28  and  C_29 
REMARK   11  A    between atoms: C_29  and  N_30 
ROOT
HETATM    1  C   UNL     1     222.476 246.035 296.861  1.00  0.00     0.173 A 
HETATM    2  O   UNL     1     222.795 247.298 296.434  1.00  0.00    -0.302 OA
HETATM    3  C   UNL     1     222.164 248.146 297.328  1.00  0.00     0.169 A 
HETATM    4  N   UNL     1     221.488 247.477 298.241  1.00  0.00    -0.225 NA
HETATM    5  C   UNL     1     221.687 246.145 297.978  1.00  0.00     0.083 A 
ENDROOT
BRANCH   5   6
HETATM    6  C   UNL     1     221.051 245.192 298.924  1.00  0.00     0.237 C 
BRANCH   6   7
HETATM    7  O   UNL     1     221.920 244.500 299.822  1.00  0.00    -0.345 OA
BRANCH   7   8
HETATM    8  C   UNL     1     222.170 243.196 299.445  1.00  0.00     0.069 A 
HETATM    9  C   UNL     1     223.146 242.780 298.534  1.00  0.00     0.037 A 
HETATM   10  C   UNL     1     223.305 241.425 298.226  1.00  0.00     0.010 A 
HETATM   11  C   UNL     1     222.495 240.447 298.817  1.00  0.00    -0.058 A 
HETATM   12  C   UNL     1     221.521 240.868 299.731  1.00  0.00     0.010 A 
HETATM   13  C   UNL     1     221.360 242.229 300.039  1.00  0.00     0.037 A 
BRANCH  11  14
HETATM   14  C   UNL     1     222.718 239.008 298.403  1.00  0.00     0.038 C 
BRANCH  14  15
HETATM   15  C   UNL     1     224.140 238.455 298.551  1.00  0.00     0.006 C 
BRANCH  15  16
HETATM   16  C   UNL     1     224.344 237.795 299.921  1.00  0.00     0.022 C 
BRANCH  16  17
HETATM   17  C   UNL     1     225.466 238.487 300.701  1.00  0.00     0.146 C 
BRANCH  17  18
HETATM   18  N   UNL     1     225.195 239.843 301.131  1.00  0.00    -0.284 N 
HETATM   19  N   UNL     1     224.217 240.138 302.006  1.00  0.00     0.004 NA
HETATM   20  N   UNL     1     224.242 241.449 302.207  1.00  0.00    -0.171 NA
HETATM   21  C   UNL     1     225.250 241.974 301.451  1.00  0.00     0.154 A 
HETATM   22  C   UNL     1     225.872 240.968 300.755  1.00  0.00     0.128 A 
ENDBRANCH  17  18
ENDBRANCH  16  17
ENDBRANCH  15  16
ENDBRANCH  14  15
ENDBRANCH  11  14
ENDBRANCH   7   8
ENDBRANCH   6   7
ENDBRANCH   5   6
BRANCH   3  23
HETATM   23  C   UNL     1     222.192 249.562 297.361  1.00  0.00     0.059 C 
HETATM   24  C   UNL     1     222.190 250.356 298.436  1.00  0.00     0.015 C 
BRANCH  24  25
HETATM   25  C   UNL     1     222.163 251.835 298.305  1.00  0.00    -0.036 A 
HETATM   26  C   UNL     1     222.856 252.455 297.260  1.00  0.00     0.012 A 
HETATM   27  C   UNL     1     222.793 253.846 297.080  1.00  0.00     0.017 A 
HETATM   28  C   UNL     1     222.024 254.649 297.936  1.00  0.00     0.048 A 
HETATM   29  C   UNL     1     221.391 254.044 299.023  1.00  0.00     0.017 A 
HETATM   30  C   UNL     1     221.464 252.663 299.204  1.00  0.00     0.012 A 
BRANCH  28  31
HETATM   31  C   UNL     1     221.874 256.131 297.708  1.00  0.00     0.417 C 
HETATM   32  F   UNL     1     222.477 256.878 298.673  1.00  0.00    -0.166 F 
HETATM   33  F   UNL     1     222.408 256.544 296.524  1.00  0.00    -0.166 F 
HETATM   34  F   UNL     1     220.572 256.534 297.684  1.00  0.00    -0.166 F 
ENDBRANCH  28  31
ENDBRANCH  24  25
ENDBRANCH   3  23
TORSDOF 11
ENDMDL
MODEL 3
REMARK VINA RESULT:     -10.1      0.992      1.666
REMARK  11 active torsions:
REMARK  status: ('A' for Active; 'I' for Inactive)
REMARK    1  A    between atoms: C_3  and  C_6 
REMARK    2  A    between atoms: C_5  and  C_18 
REMARK    3  A    between atoms: C_7  and  C_8 
REMARK    4  A    between atoms: C_11  and  C_14 
REMARK    5  A    between atoms: C_18  and  O_19 
REMARK    6  A    between atoms: O_19  and  C_20 
REMARK    7  A    between atoms: C_23  and  C_26 
REMARK    8  A    between atoms: C_26  and  C_27 
REMARK    9  A    between atoms: C_27  and  C_28 
REMARK   10  A    between atoms: C_28  and  C_29 
REMARK   11  A    between atoms: C_29  and  N_30 
ROOT
HETATM    1  C   UNL     1     219.185 248.379 298.133  1.00  0.00     0.173 A 
HETATM    2  O   UNL     1     219.514 247.063 298.329  1.00  0.00    -0.302 OA
HETATM    3  C   UNL     1     220.590 247.090 299.199  1.00  0.00     0.169 A 
HETATM    4  N   UNL     1     220.927 248.324 299.519  1.00  0.00    -0.225 NA
HETATM    5  C   UNL     1     220.042 249.152 298.875  1.00  0.00     0.083 A 
ENDROOT
BRANCH   5   6
HETATM    6  C   UNL     1     220.203 250.606 299.135  1.00  0.00     0.237 C 
BRANCH   6   7
HETATM    7  O   UNL     1     221.540 251.101 299.215  1.00  0.00    -0.345 OA
BRANCH   7   8
HETATM    8  C   UNL     1     221.660 252.419 298.823  1.00  0.00     0.069 A 
HETATM    9  C   UNL     1     222.431 252.889 297.755  1.00  0.00     0.037 A 
HETATM   10  C   UNL     1     222.478 254.254 297.454  1.00  0.00     0.010 A 
HETATM   11  C   UNL     1     221.759 255.189 298.210  1.00  0.00    -0.058 A 
HETATM   12  C   UNL     1     220.985 254.713 299.275  1.00  0.00     0.010 A 
HETATM   13  C   UNL     1     220.939 253.343 299.579  1.00  0.00     0.037 A 
BRANCH  11  14
HETATM   14  C   UNL     1     221.892 256.648 297.830  1.00  0.00     0.038 C 
BRANCH  14  15
HETATM   15  C   UNL     1     221.164 257.106 296.561  1.00  0.00     0.006 C 
BRANCH  15  16
HETATM   16  C   UNL     1     219.869 257.856 296.898  1.00  0.00     0.022 C 
BRANCH  16  17
HETATM   17  C   UNL     1     220.168 259.287 297.355  1.00  0.00     0.146 C 
BRANCH  17  18
HETATM   18  N   UNL     1     219.510 259.714 298.571  1.00  0.00    -0.284 N 
HETATM   19  N   UNL     1     219.131 260.988 298.775  1.00  0.00     0.004 NA
HETATM   20  N   UNL     1     218.544 261.047 299.963  1.00  0.00    -0.171 NA
HETATM   21  C   UNL     1     218.555 259.793 300.503  1.00  0.00     0.154 A 
HETATM   22  C   UNL     1     219.167 258.926 299.633  1.00  0.00     0.128 A 
ENDBRANCH  17  18
ENDBRANCH  16  17
ENDBRANCH  15  16
ENDBRANCH  14  15
ENDBRANCH  11  14
ENDBRANCH   7   8
ENDBRANCH   6   7
ENDBRANCH   5   6
BRANCH   3  23
HETATM   23  C   UNL     1     221.299 245.995 299.752  1.00  0.00     0.059 C 
HETATM   24  C   UNL     1     221.538 244.807 299.189  1.00  0.00     0.015 C 
BRANCH  24  25
HETATM   25  C   UNL     1     222.252 243.732 299.925  1.00  0.00    -0.036 A 
HETATM   26  C   UNL     1     221.542 242.626 300.404  1.00  0.00     0.012 A 
HETATM   27  C   UNL     1     222.206 241.568 301.046  1.00  0.00     0.017 A 
HETATM   28  C   UNL     1     223.598 241.588 301.215  1.00  0.00     0.048 A 
HETATM   29  C   UNL     1     224.301 242.723 300.806  1.00  0.00     0.017 A 
HETATM   30  C   UNL     1     223.637 243.776 300.176  1.00  0.00     0.012 A 
BRANCH  28  31
HETATM   31  C   UNL     1     224.339 240.425 301.824  1.00  0.00     0.417 C 
HETATM   32  F   UNL     1     224.267 239.298 301.065  1.00  0.00    -0.166 F 
HETATM   33  F   UNL     1     225.666 240.676 302.005  1.00  0.00    -0.166 F 
HETATM   34  F   UNL     1     223.859 240.078 303.052  1.00  0.00    -0.166 F 
ENDBRANCH  28  31
ENDBRANCH  24  25
ENDBRANCH   3  23
TORSDOF 11
ENDMDL
MODEL 4
REMARK VINA RESULT:     -10.0      1.815      2.478
REMARK  11 active torsions:
REMARK  status: ('A' for Active; 'I' for Inactive)
REMARK    1  A    between atoms: C_3  and  C_6 
REMARK    2  A    between atoms: C_5  and  C_18 
REMARK    3  A    between atoms: C_7  and  C_8 
REMARK    4  A    between atoms: C_11  and  C_14 
REMARK    5  A    between atoms: C_18  and  O_19 
REMARK    6  A    between atoms: O_19  and  C_20 
REMARK    7  A    between atoms: C_23  and  C_26 
REMARK    8  A    between atoms: C_26  and  C_27 
REMARK    9  A    between atoms: C_27  and  C_28 
REMARK   10  A    between atoms: C_28  and  C_29 
REMARK   11  A    between atoms: C_29  and  N_30 
ROOT
HETATM    1  C   UNL     1     219.477 246.497 298.537  1.00  0.00     0.173 A 
HETATM    2  O   UNL     1     219.659 245.144 298.424  1.00  0.00    -0.302 OA
HETATM    3  C   UNL     1     220.990 244.935 298.742  1.00  0.00     0.169 A 
HETATM    4  N   UNL     1     221.607 246.066 299.021  1.00  0.00    -0.225 NA
HETATM    5  C   UNL     1     220.669 247.062 298.918  1.00  0.00     0.083 A 
ENDROOT
BRANCH   5   6
HETATM    6  C   UNL     1     221.136 248.434 299.243  1.00  0.00     0.237 C 
BRANCH   6   7
HETATM    7  O   UNL     1     220.129 249.403 299.538  1.00  0.00    -0.345 OA
BRANCH   7   8
HETATM    8  C   UNL     1     220.564 250.705 299.392  1.00  0.00     0.069 A 
HETATM    9  C   UNL     1     219.992 251.831 299.994  1.00  0.00     0.037 A 
HETATM   10  C   UNL     1     220.519 253.107 299.770  1.00  0.00     0.010 A 
HETATM   11  C   UNL     1     221.630 253.296 298.937  1.00  0.00    -0.058 A 
HETATM   12  C   UNL     1     222.201 252.166 298.340  1.00  0.00     0.010 A 
HETATM   13  C   UNL     1     221.671 250.885 298.564  1.00  0.00     0.037 A 
BRANCH  11  14
HETATM   14  C   UNL     1     222.115 254.715 298.728  1.00  0.00     0.038 C 
BRANCH  14  15
HETATM   15  C   UNL     1     222.233 255.203 297.280  1.00  0.00     0.006 C 
BRANCH  15  16
HETATM   16  C   UNL     1     222.074 256.726 297.187  1.00  0.00     0.022 C 
BRANCH  16  17
HETATM   17  C   UNL     1     220.606 257.113 296.989  1.00  0.00     0.146 C 
BRANCH  17  18
HETATM   18  N   UNL     1     219.850 257.368 298.197  1.00  0.00    -0.284 N 
HETATM   19  N   UNL     1     219.079 256.430 298.775  1.00  0.00     0.004 NA
HETATM   20  N   UNL     1     218.542 256.967 299.863  1.00  0.00    -0.171 NA
HETATM   21  C   UNL     1     218.989 258.253 299.965  1.00  0.00     0.154 A 
HETATM   22  C   UNL     1     219.824 258.532 298.912  1.00  0.00     0.128 A 
ENDBRANCH  17  18
ENDBRANCH  16  17
ENDBRANCH  15  16
ENDBRANCH  14  15
ENDBRANCH  11  14
ENDBRANCH   7   8
ENDBRANCH   6   7
ENDBRANCH   5   6
BRANCH   3  23
HETATM   23  C   UNL     1     221.693 243.707 298.809  1.00  0.00     0.059 C 
HETATM   24  C   UNL     1     221.185 242.480 298.948  1.00  0.00     0.015 C 
BRANCH  24  25
HETATM   25  C   UNL     1     222.063 241.287 299.061  1.00  0.00    -0.036 A 
HETATM   26  C   UNL     1     223.069 241.252 300.033  1.00  0.00     0.012 A 
HETATM   27  C   UNL     1     223.869 240.110 300.200  1.00  0.00     0.017 A 
HETATM   28  C   UNL     1     223.674 238.971 299.404  1.00  0.00     0.048 A 
HETATM   29  C   UNL     1     222.721 239.028 298.385  1.00  0.00     0.017 A 
HETATM   30  C   UNL     1     221.935 240.168 298.216  1.00  0.00     0.012 A 
BRANCH  28  31
HETATM   31  C   UNL     1     224.463 237.707 299.625  1.00  0.00     0.417 C 
HETATM   32  F   UNL     1     225.506 237.578 298.760  1.00  0.00    -0.166 F 
HETATM   33  F   UNL     1     224.997 237.625 300.876  1.00  0.00    -0.166 F 
HETATM   34  F   UNL     1     223.712 236.580 299.472  1.00  0.00    -0.166 F 
ENDBRANCH  28  31
ENDBRANCH  24  25
ENDBRANCH   3  23
TORSDOF 11
ENDMDL
MODEL 5
REMARK VINA RESULT:     -10.0      6.210     13.231
REMARK  11 active torsions:
REMARK  status: ('A' for Active; 'I' for Inactive)
REMARK    1  A    between atoms: C_3  and  C_6 
REMARK    2  A    between atoms: C_5  and  C_18 
REMARK    3  A    between atoms: C_7  and  C_8 
REMARK    4  A    between atoms: C_11  and  C_14 
REMARK    5  A    between atoms: C_18  and  O_19 
REMARK    6  A    between atoms: O_19  and  C_20 
REMARK    7  A    between atoms: C_23  and  C_26 
REMARK    8  A    between atoms: C_26  and  C_27 
REMARK    9  A    between atoms: C_27  and  C_28 
REMARK   10  A    between atoms: C_28  and  C_29 
REMARK   11  A    between atoms: C_29  and  N_30 
ROOT
HETATM    1  C   UNL     1     221.012 246.908 299.997  1.00  0.00     0.173 A 
HETATM    2  O   UNL     1     221.010 248.244 300.302  1.00  0.00    -0.302 OA
HETATM    3  C   UNL     1     221.401 248.877 299.136  1.00  0.00     0.169 A 
HETATM    4  N   UNL     1     221.647 248.013 298.171  1.00  0.00    -0.225 NA
HETATM    5  C   UNL     1     221.388 246.767 298.685  1.00  0.00     0.083 A 
ENDROOT
BRANCH   5   6
HETATM    6  C   UNL     1     221.551 245.628 297.745  1.00  0.00     0.237 C 
BRANCH   6   7
HETATM    7  O   UNL     1     221.258 244.327 298.255  1.00  0.00    -0.345 OA
BRANCH   7   8
HETATM    8  C   UNL     1     222.318 243.751 298.927  1.00  0.00     0.069 A 
HETATM    9  C   UNL     1     223.629 243.644 298.450  1.00  0.00     0.037 A 
HETATM   10  C   UNL     1     224.622 243.034 299.222  1.00  0.00     0.010 A 
HETATM   11  C   UNL     1     224.337 242.512 300.490  1.00  0.00    -0.058 A 
HETATM   12  C   UNL     1     223.024 242.625 300.965  1.00  0.00     0.010 A 
HETATM   13  C   UNL     1     222.026 243.236 300.189  1.00  0.00     0.037 A 
BRANCH  11  14
HETATM   14  C   UNL     1     225.468 241.843 301.243  1.00  0.00     0.038 C 
BRANCH  14  15
HETATM   15  C   UNL     1     225.927 240.472 300.734  1.00  0.00     0.006 C 
BRANCH  15  16
HETATM   16  C   UNL     1     224.821 239.419 300.885  1.00  0.00     0.022 C 
BRANCH  16  17
HETATM   17  C   UNL     1     224.573 238.691 299.561  1.00  0.00     0.146 C 
BRANCH  17  18
HETATM   18  N   UNL     1     223.726 239.378 298.609  1.00  0.00    -0.284 N 
HETATM   19  N   UNL     1     222.447 239.692 298.881  1.00  0.00     0.004 NA
HETATM   20  N   UNL     1     221.957 240.327 297.823  1.00  0.00    -0.171 NA
HETATM   21  C   UNL     1     222.946 240.412 296.886  1.00  0.00     0.154 A 
HETATM   22  C   UNL     1     224.083 239.812 297.365  1.00  0.00     0.128 A 
ENDBRANCH  17  18
ENDBRANCH  16  17
ENDBRANCH  15  16
ENDBRANCH  14  15
ENDBRANCH  11  14
ENDBRANCH   7   8
ENDBRANCH   6   7
ENDBRANCH   5   6
BRANCH   3  23
HETATM   23  C   UNL     1     221.534 250.267 298.895  1.00  0.00     0.059 C 
HETATM   24  C   UNL     1     220.946 251.272 299.549  1.00  0.00     0.015 C 
BRANCH  24  25
HETATM   25  C   UNL     1     221.143 252.685 299.137  1.00  0.00    -0.036 A 
HETATM   26  C   UNL     1     222.146 253.009 298.217  1.00  0.00     0.012 A 
HETATM   27  C   UNL     1     222.308 254.328 297.765  1.00  0.00     0.017 A 
HETATM   28  C   UNL     1     221.463 255.354 298.215  1.00  0.00     0.048 A 
HETATM   29  C   UNL     1     220.510 255.049 299.188  1.00  0.00     0.017 A 
HETATM   30  C   UNL     1     220.357 253.739 299.642  1.00  0.00     0.012 A 
BRANCH  28  31
HETATM   31  C   UNL     1     221.566 256.758 297.677  1.00  0.00     0.417 C 
HETATM   32  F   UNL     1     222.187 257.609 298.539  1.00  0.00    -0.166 F 
HETATM   33  F   UNL     1     222.263 256.830 296.509  1.00  0.00    -0.166 F 
HETATM   34  F   UNL     1     220.350 257.315 297.415  1.00  0.00    -0.166 F 
ENDBRANCH  28  31
ENDBRANCH  24  25
ENDBRANCH   3  23
TORSDOF 11
ENDMDL
MODEL 6
REMARK VINA RESULT:     -10.0      6.267     13.379
REMARK  11 active torsions:
REMARK  status: ('A' for Active; 'I' for Inactive)
REMARK    1  A    between atoms: C_3  and  C_6 
REMARK    2  A    between atoms: C_5  and  C_18 
REMARK    3  A    between atoms: C_7  and  C_8 
REMARK    4  A    between atoms: C_11  and  C_14 
REMARK    5  A    between atoms: C_18  and  O_19 
REMARK    6  A    between atoms: O_19  and  C_20 
REMARK    7  A    between atoms: C_23  and  C_26 
REMARK    8  A    between atoms: C_26  and  C_27 
REMARK    9  A    between atoms: C_27  and  C_28 
REMARK   10  A    between atoms: C_28  and  C_29 
REMARK   11  A    between atoms: C_29  and  N_30 
ROOT
HETATM    1  C   UNL     1     221.012 246.697 300.123  1.00  0.00     0.173 A 
HETATM    2  O   UNL     1     220.939 248.052 300.307  1.00  0.00    -0.302 OA
HETATM    3  C   UNL     1     221.244 248.596 299.071  1.00  0.00     0.169 A 
HETATM    4  N   UNL     1     221.504 247.662 298.178  1.00  0.00    -0.225 NA
HETATM    5  C   UNL     1     221.344 246.456 298.813  1.00  0.00     0.083 A 
ENDROOT
BRANCH   5   6
HETATM    6  C   UNL     1     221.539 245.247 297.974  1.00  0.00     0.237 C 
BRANCH   6   7
HETATM    7  O   UNL     1     222.828 244.634 298.018  1.00  0.00    -0.345 OA
BRANCH   7   8
HETATM    8  C   UNL     1     222.779 243.265 298.183  1.00  0.00     0.069 A 
HETATM    9  C   UNL     1     221.918 242.574 299.043  1.00  0.00     0.037 A 
HETATM   10  C   UNL     1     221.961 241.179 299.129  1.00  0.00     0.010 A 
HETATM   11  C   UNL     1     222.865 240.433 298.361  1.00  0.00    -0.058 A 
HETATM   12  C   UNL     1     223.722 241.129 297.500  1.00  0.00     0.010 A 
HETATM   13  C   UNL     1     223.680 242.530 297.415  1.00  0.00     0.037 A 
BRANCH  11  14
HETATM   14  C   UNL     1     222.862 238.930 298.540  1.00  0.00     0.038 C 
BRANCH  14  15
HETATM   15  C   UNL     1     224.224 238.246 298.700  1.00  0.00     0.006 C 
BRANCH  15  16
HETATM   16  C   UNL     1     224.518 237.917 300.169  1.00  0.00     0.022 C 
BRANCH  16  17
HETATM   17  C   UNL     1     225.594 238.848 300.735  1.00  0.00     0.146 C 
BRANCH  17  18
HETATM   18  N   UNL     1     225.150 240.174 301.111  1.00  0.00    -0.284 N 
HETATM   19  N   UNL     1     224.169 240.376 302.008  1.00  0.00     0.004 NA
HETATM   20  N   UNL     1     224.017 241.687 302.146  1.00  0.00    -0.171 NA
HETATM   21  C   UNL     1     224.917 242.306 301.327  1.00  0.00     0.154 A 
HETATM   22  C   UNL     1     225.650 241.360 300.656  1.00  0.00     0.128 A 
ENDBRANCH  17  18
ENDBRANCH  16  17
ENDBRANCH  15  16
ENDBRANCH  14  15
ENDBRANCH  11  14
ENDBRANCH   7   8
ENDBRANCH   6   7
ENDBRANCH   5   6
BRANCH   3  23
HETATM   23  C   UNL     1     221.282 249.963 298.701  1.00  0.00     0.059 C 
HETATM   24  C   UNL     1     222.023 250.937 299.236  1.00  0.00     0.015 C 
BRANCH  24  25
HETATM   25  C   UNL     1     221.907 252.343 298.772  1.00  0.00    -0.036 A 
HETATM   26  C   UNL     1     221.099 253.244 299.474  1.00  0.00     0.012 A 
HETATM   27  C   UNL     1     221.024 254.593 299.090  1.00  0.00     0.017 A 
HETATM   28  C   UNL     1     221.766 255.074 298.001  1.00  0.00     0.048 A 
HETATM   29  C   UNL     1     222.515 254.164 297.253  1.00  0.00     0.017 A 
HETATM   30  C   UNL     1     222.580 252.823 297.632  1.00  0.00     0.012 A 
BRANCH  28  31
HETATM   31  C   UNL     1     221.766 256.534 297.627  1.00  0.00     0.417 C 
HETATM   32  F   UNL     1     220.515 257.021 297.401  1.00  0.00    -0.166 F 
HETATM   33  F   UNL     1     222.313 257.329 298.588  1.00  0.00    -0.166 F 
HETATM   34  F   UNL     1     222.475 256.789 296.491  1.00  0.00    -0.166 F 
ENDBRANCH  28  31
ENDBRANCH  24  25
ENDBRANCH   3  23
TORSDOF 11
ENDMDL
MODEL 7
REMARK VINA RESULT:     -10.0      6.252     12.889
REMARK  11 active torsions:
REMARK  status: ('A' for Active; 'I' for Inactive)
REMARK    1  A    between atoms: C_3  and  C_6 
REMARK    2  A    between atoms: C_5  and  C_18 
REMARK    3  A    between atoms: C_7  and  C_8 
REMARK    4  A    between atoms: C_11  and  C_14 
REMARK    5  A    between atoms: C_18  and  O_19 
REMARK    6  A    between atoms: O_19  and  C_20 
REMARK    7  A    between atoms: C_23  and  C_26 
REMARK    8  A    between atoms: C_26  and  C_27 
REMARK    9  A    between atoms: C_27  and  C_28 
REMARK   10  A    between atoms: C_28  and  C_29 
REMARK   11  A    between atoms: C_29  and  N_30 
ROOT
HETATM    1  C   UNL     1     221.062 246.602 300.096  1.00  0.00     0.173 A 
HETATM    2  O   UNL     1     221.060 247.956 300.308  1.00  0.00    -0.302 OA
HETATM    3  C   UNL     1     221.240 248.513 299.054  1.00  0.00     0.169 A 
HETATM    4  N   UNL     1     221.361 247.587 298.122  1.00  0.00    -0.225 NA
HETATM    5  C   UNL     1     221.231 246.376 298.753  1.00  0.00     0.083 A 
ENDROOT
BRANCH   5   6
HETATM    6  C   UNL     1     221.283 245.176 297.879  1.00  0.00     0.237 C 
BRANCH   6   7
HETATM    7  O   UNL     1     220.294 244.172 298.104  1.00  0.00    -0.345 OA
BRANCH   7   8
HETATM    8  C   UNL     1     220.824 242.907 298.264  1.00  0.00     0.069 A 
HETATM    9  C   UNL     1     220.722 242.115 299.412  1.00  0.00     0.037 A 
HETATM   10  C   UNL     1     221.305 240.845 299.459  1.00  0.00     0.010 A 
HETATM   11  C   UNL     1     222.008 240.330 298.362  1.00  0.00    -0.058 A 
HETATM   12  C   UNL     1     222.104 241.124 297.213  1.00  0.00     0.010 A 
HETATM   13  C   UNL     1     221.520 242.401 297.167  1.00  0.00     0.037 A 
BRANCH  11  14
HETATM   14  C   UNL     1     222.631 238.958 298.512  1.00  0.00     0.038 C 
BRANCH  14  15
HETATM   15  C   UNL     1     224.150 238.902 298.711  1.00  0.00     0.006 C 
BRANCH  15  16
HETATM   16  C   UNL     1     224.546 239.341 300.127  1.00  0.00     0.022 C 
BRANCH  16  17
HETATM   17  C   UNL     1     225.517 240.523 300.083  1.00  0.00     0.146 C 
BRANCH  17  18
HETATM   18  N   UNL     1     224.913 241.839 300.066  1.00  0.00    -0.284 N 
HETATM   19  N   UNL     1     224.914 242.617 298.969  1.00  0.00     0.004 NA
HETATM   20  N   UNL     1     224.271 243.738 299.272  1.00  0.00    -0.171 NA
HETATM   21  C   UNL     1     223.862 243.653 300.571  1.00  0.00     0.154 A 
HETATM   22  C   UNL     1     224.262 242.451 301.099  1.00  0.00     0.128 A 
ENDBRANCH  17  18
ENDBRANCH  16  17
ENDBRANCH  15  16
ENDBRANCH  14  15
ENDBRANCH  11  14
ENDBRANCH   7   8
ENDBRANCH   6   7
ENDBRANCH   5   6
BRANCH   3  23
HETATM   23  C   UNL     1     221.285 249.884 298.702  1.00  0.00     0.059 C 
HETATM   24  C   UNL     1     221.974 250.860 299.299  1.00  0.00     0.015 C 
BRANCH  24  25
HETATM   25  C   UNL     1     221.871 252.271 298.843  1.00  0.00    -0.036 A 
HETATM   26  C   UNL     1     221.086 253.180 299.562  1.00  0.00     0.012 A 
HETATM   27  C   UNL     1     221.025 254.531 299.186  1.00  0.00     0.017 A 
HETATM   28  C   UNL     1     221.757 255.007 298.088  1.00  0.00     0.048 A 
HETATM   29  C   UNL     1     222.482 254.091 297.325  1.00  0.00     0.017 A 
HETATM   30  C   UNL     1     222.533 252.747 297.695  1.00  0.00     0.012 A 
BRANCH  28  31
HETATM   31  C   UNL     1     221.772 256.469 297.722  1.00  0.00     0.417 C 
HETATM   32  F   UNL     1     222.318 257.251 298.692  1.00  0.00    -0.166 F 
HETATM   33  F   UNL     1     222.481 256.725 296.587  1.00  0.00    -0.166 F 
HETATM   34  F   UNL     1     220.525 256.971 297.496  1.00  0.00    -0.166 F 
ENDBRANCH  28  31
ENDBRANCH  24  25
ENDBRANCH   3  23
TORSDOF 11
ENDMDL
MODEL 8
REMARK VINA RESULT:     -10.0      1.430      2.384
REMARK  11 active torsions:
REMARK  status: ('A' for Active; 'I' for Inactive)
REMARK    1  A    between atoms: C_3  and  C_6 
REMARK    2  A    between atoms: C_5  and  C_18 
REMARK    3  A    between atoms: C_7  and  C_8 
REMARK    4  A    between atoms: C_11  and  C_14 
REMARK    5  A    between atoms: C_18  and  O_19 
REMARK    6  A    between atoms: O_19  and  C_20 
REMARK    7  A    between atoms: C_23  and  C_26 
REMARK    8  A    between atoms: C_26  and  C_27 
REMARK    9  A    between atoms: C_27  and  C_28 
REMARK   10  A    between atoms: C_28  and  C_29 
REMARK   11  A    between atoms: C_29  and  N_30 
ROOT
HETATM    1  C   UNL     1     219.559 246.628 298.416  1.00  0.00     0.173 A 
HETATM    2  O   UNL     1     219.734 245.273 298.304  1.00  0.00    -0.302 OA
HETATM    3  C   UNL     1     220.921 245.011 298.964  1.00  0.00     0.169 A 
HETATM    4  N   UNL     1     221.465 246.112 299.445  1.00  0.00    -0.225 NA
HETATM    5  C   UNL     1     220.614 247.141 299.129  1.00  0.00     0.083 A 
ENDROOT
BRANCH   5   6
HETATM    6  C   UNL     1     221.005 248.485 299.623  1.00  0.00     0.237 C 
BRANCH   6   7
HETATM    7  O   UNL     1     220.037 249.527 299.490  1.00  0.00    -0.345 OA
BRANCH   7   8
HETATM    8  C   UNL     1     220.595 250.766 299.248  1.00  0.00     0.069 A 
HETATM    9  C   UNL     1     221.744 251.012 298.489  1.00  0.00     0.037 A 
HETATM   10  C   UNL     1     222.220 252.315 298.314  1.00  0.00     0.010 A 
HETATM   11  C   UNL     1     221.564 253.409 298.892  1.00  0.00    -0.058 A 
HETATM   12  C   UNL     1     220.412 253.159 299.648  1.00  0.00     0.010 A 
HETATM   13  C   UNL     1     219.935 251.850 299.825  1.00  0.00     0.037 A 
BRANCH  11  14
HETATM   14  C   UNL     1     222.166 254.782 298.675  1.00  0.00     0.038 C 
BRANCH  14  15
HETATM   15  C   UNL     1     222.203 255.305 297.235  1.00  0.00     0.006 C 
BRANCH  15  16
HETATM   16  C   UNL     1     222.050 256.830 297.189  1.00  0.00     0.022 C 
BRANCH  16  17
HETATM   17  C   UNL     1     220.584 257.228 296.995  1.00  0.00     0.146 C 
BRANCH  17  18
HETATM   18  N   UNL     1     219.835 257.495 298.205  1.00  0.00    -0.284 N 
HETATM   19  N   UNL     1     219.181 256.529 298.874  1.00  0.00     0.004 NA
HETATM   20  N   UNL     1     218.618 257.088 299.938  1.00  0.00    -0.171 NA
HETATM   21  C   UNL     1     218.929 258.417 299.932  1.00  0.00     0.154 A 
HETATM   22  C   UNL     1     219.704 258.700 298.835  1.00  0.00     0.128 A 
ENDBRANCH  17  18
ENDBRANCH  16  17
ENDBRANCH  15  16
ENDBRANCH  14  15
ENDBRANCH  11  14
ENDBRANCH   7   8
ENDBRANCH   6   7
ENDBRANCH   5   6
BRANCH   3  23
HETATM   23  C   UNL     1     221.550 243.759 299.173  1.00  0.00     0.059 C 
HETATM   24  C   UNL     1     222.606 243.492 299.947  1.00  0.00     0.015 C 
BRANCH  24  25
HETATM   25  C   UNL     1     223.189 242.127 300.016  1.00  0.00    -0.036 A 
HETATM   26  C   UNL     1     223.991 241.767 301.105  1.00  0.00     0.012 A 
HETATM   27  C   UNL     1     224.500 240.464 301.223  1.00  0.00     0.017 A 
HETATM   28  C   UNL     1     224.210 239.487 300.259  1.00  0.00     0.048 A 
HETATM   29  C   UNL     1     223.473 239.862 299.134  1.00  0.00     0.017 A 
HETATM   30  C   UNL     1     222.976 241.160 299.016  1.00  0.00     0.012 A 
BRANCH  28  31
HETATM   31  C   UNL     1     224.676 238.062 300.412  1.00  0.00     0.417 C 
HETATM   32  F   UNL     1     224.684 237.645 301.707  1.00  0.00    -0.166 F 
HETATM   33  F   UNL     1     223.897 237.173 299.734  1.00  0.00    -0.166 F 
HETATM   34  F   UNL     1     225.944 237.867 299.950  1.00  0.00    -0.166 F 
ENDBRANCH  28  31
ENDBRANCH  24  25
ENDBRANCH   3  23
TORSDOF 11
ENDMDL
MODEL 9
REMARK VINA RESULT:     -10.0      6.594     10.800
REMARK  11 active torsions:
REMARK  status: ('A' for Active; 'I' for Inactive)
REMARK    1  A    between atoms: C_3  and  C_6 
REMARK    2  A    between atoms: C_5  and  C_18 
REMARK    3  A    between atoms: C_7  and  C_8 
REMARK    4  A    between atoms: C_11  and  C_14 
REMARK    5  A    between atoms: C_18  and  O_19 
REMARK    6  A    between atoms: O_19  and  C_20 
REMARK    7  A    between atoms: C_23  and  C_26 
REMARK    8  A    between atoms: C_26  and  C_27 
REMARK    9  A    between atoms: C_27  and  C_28 
REMARK   10  A    between atoms: C_28  and  C_29 
REMARK   11  A    between atoms: C_29  and  N_30 
ROOT
HETATM    1  C   UNL     1     219.444 260.263 298.393  1.00  0.00     0.173 A 
HETATM    2  O   UNL     1     220.096 259.327 297.636  1.00  0.00    -0.302 OA
HETATM    3  C   UNL     1     220.120 258.187 298.420  1.00  0.00     0.169 A 
HETATM    4  N   UNL     1     219.542 258.387 299.588  1.00  0.00    -0.225 NA
HETATM    5  C   UNL     1     219.090 259.683 299.586  1.00  0.00     0.083 A 
ENDROOT
BRANCH   5   6
HETATM    6  C   UNL     1     218.351 260.117 300.798  1.00  0.00     0.237 C 
BRANCH   6   7
HETATM    7  O   UNL     1     218.789 261.327 301.419  1.00  0.00    -0.345 OA
BRANCH   7   8
HETATM    8  C   UNL     1     217.864 262.349 301.340  1.00  0.00     0.069 A 
HETATM    9  C   UNL     1     216.566 262.241 300.828  1.00  0.00     0.037 A 
HETATM   10  C   UNL     1     215.717 263.351 300.795  1.00  0.00     0.010 A 
HETATM   11  C   UNL     1     216.137 264.600 301.270  1.00  0.00    -0.058 A 
HETATM   12  C   UNL     1     217.436 264.702 301.785  1.00  0.00     0.010 A 
HETATM   13  C   UNL     1     218.290 263.588 301.816  1.00  0.00     0.037 A 
BRANCH  11  14
HETATM   14  C   UNL     1     215.161 265.753 301.169  1.00  0.00     0.038 C 
BRANCH  14  15
HETATM   15  C   UNL     1     215.184 266.572 299.873  1.00  0.00     0.006 C 
BRANCH  15  16
HETATM   16  C   UNL     1     216.502 267.340 299.719  1.00  0.00     0.022 C 
BRANCH  16  17
HETATM   17  C   UNL     1     217.173 267.016 298.381  1.00  0.00     0.146 C 
BRANCH  17  18
HETATM   18  N   UNL     1     217.947 265.793 298.341  1.00  0.00    -0.284 N 
HETATM   19  N   UNL     1     217.438 264.635 297.887  1.00  0.00     0.004 NA
HETATM   20  N   UNL     1     218.396 263.720 297.960  1.00  0.00    -0.171 NA
HETATM   21  C   UNL     1     219.516 264.319 298.462  1.00  0.00     0.154 A 
HETATM   22  C   UNL     1     219.252 265.642 298.713  1.00  0.00     0.128 A 
ENDBRANCH  17  18
ENDBRANCH  16  17
ENDBRANCH  15  16
ENDBRANCH  14  15
ENDBRANCH  11  14
ENDBRANCH   7   8
ENDBRANCH   6   7
ENDBRANCH   5   6
BRANCH   3  23
HETATM   23  C   UNL     1     220.653 256.914 298.101  1.00  0.00     0.059 C 
HETATM   24  C   UNL     1     220.934 255.910 298.937  1.00  0.00     0.015 C 
BRANCH  24  25
HETATM   25  C   UNL     1     221.547 254.647 298.452  1.00  0.00    -0.036 A 
HETATM   26  C   UNL     1     222.367 254.661 297.318  1.00  0.00     0.012 A 
HETATM   27  C   UNL     1     223.008 253.492 296.879  1.00  0.00     0.017 A 
HETATM   28  C   UNL     1     222.851 252.282 297.572  1.00  0.00     0.048 A 
HETATM   29  C   UNL     1     221.977 252.246 298.659  1.00  0.00     0.017 A 
HETATM   30  C   UNL     1     221.334 253.409 299.087  1.00  0.00     0.012 A 
BRANCH  28  31
HETATM   31  C   UNL     1     223.598 251.036 297.167  1.00  0.00     0.417 C 
HETATM   32  F   UNL     1     222.774 250.045 296.729  1.00  0.00    -0.166 F 
HETATM   33  F   UNL     1     224.493 251.255 296.163  1.00  0.00    -0.166 F 
HETATM   34  F   UNL     1     224.319 250.496 298.190  1.00  0.00    -0.166 F 
ENDBRANCH  28  31
ENDBRANCH  24  25
ENDBRANCH   3  23
TORSDOF 11
ENDMDL
MODEL 10
REMARK VINA RESULT:     -10.0      6.254     13.240
REMARK  11 active torsions:
REMARK  status: ('A' for Active; 'I' for Inactive)
REMARK    1  A    between atoms: C_3  and  C_6 
REMARK    2  A    between atoms: C_5  and  C_18 
REMARK    3  A    between atoms: C_7  and  C_8 
REMARK    4  A    between atoms: C_11  and  C_14 
REMARK    5  A    between atoms: C_18  and  O_19 
REMARK    6  A    between atoms: O_19  and  C_20 
REMARK    7  A    between atoms: C_23  and  C_26 
REMARK    8  A    between atoms: C_26  and  C_27 
REMARK    9  A    between atoms: C_27  and  C_28 
REMARK   10  A    between atoms: C_28  and  C_29 
REMARK   11  A    between atoms: C_29  and  N_30 
ROOT
HETATM    1  C   UNL     1     221.082 246.946 299.973  1.00  0.00     0.173 A 
HETATM    2  O   UNL     1     220.980 248.278 300.278  1.00  0.00    -0.302 OA
HETATM    3  C   UNL     1     221.262 248.938 299.095  1.00  0.00     0.169 A 
HETATM    4  N   UNL     1     221.536 248.094 298.119  1.00  0.00    -0.225 NA
HETATM    5  C   UNL     1     221.409 246.832 298.644  1.00  0.00     0.083 A 
ENDROOT
BRANCH   5   6
HETATM    6  C   UNL     1     221.625 245.708 297.699  1.00  0.00     0.237 C 
BRANCH   6   7
HETATM    7  O   UNL     1     221.239 244.408 298.146  1.00  0.00    -0.345 OA
BRANCH   7   8
HETATM    8  C   UNL     1     222.205 243.782 298.908  1.00  0.00     0.069 A 
HETATM    9  C   UNL     1     222.000 243.171 300.150  1.00  0.00     0.037 A 
HETATM   10  C   UNL     1     223.061 242.569 300.834  1.00  0.00     0.010 A 
HETATM   11  C   UNL     1     224.355 242.559 300.299  1.00  0.00    -0.058 A 
HETATM   12  C   UNL     1     224.555 243.168 299.054  1.00  0.00     0.010 A 
HETATM   13  C   UNL     1     223.490 243.774 298.368  1.00  0.00     0.037 A 
BRANCH  11  14
HETATM   14  C   UNL     1     225.448 241.910 301.123  1.00  0.00     0.038 C 
BRANCH  14  15
HETATM   15  C   UNL     1     225.997 240.572 300.617  1.00  0.00     0.006 C 
BRANCH  15  16
HETATM   16  C   UNL     1     225.070 239.408 300.989  1.00  0.00     0.022 C 
BRANCH  16  17
HETATM   17  C   UNL     1     224.689 238.593 299.751  1.00  0.00     0.146 C 
BRANCH  17  18
HETATM   18  N   UNL     1     223.915 239.291 298.746  1.00  0.00    -0.284 N 
HETATM   19  N   UNL     1     222.632 239.641 298.942  1.00  0.00     0.004 NA
HETATM   20  N   UNL     1     222.219 240.277 297.852  1.00  0.00    -0.171 NA
HETATM   21  C   UNL     1     223.261 240.326 296.971  1.00  0.00     0.154 A 
HETATM   22  C   UNL     1     224.353 239.702 297.519  1.00  0.00     0.128 A 
ENDBRANCH  17  18
ENDBRANCH  16  17
ENDBRANCH  15  16
ENDBRANCH  14  15
ENDBRANCH  11  14
ENDBRANCH   7   8
ENDBRANCH   6   7
ENDBRANCH   5   6
BRANCH   3  23
HETATM   23  C   UNL     1     221.265 250.333 298.848  1.00  0.00     0.059 C 
HETATM   24  C   UNL     1     222.290 251.091 298.450  1.00  0.00     0.015 C 
BRANCH  24  25
HETATM   25  C   UNL     1     222.148 252.562 298.289  1.00  0.00    -0.036 A 
HETATM   26  C   UNL     1     222.784 253.211 297.226  1.00  0.00     0.012 A 
HETATM   27  C   UNL     1     222.612 254.589 297.018  1.00  0.00     0.017 A 
HETATM   28  C   UNL     1     221.791 255.348 297.864  1.00  0.00     0.048 A 
HETATM   29  C   UNL     1     221.213 254.719 298.969  1.00  0.00     0.017 A 
HETATM   30  C   UNL     1     221.394 253.352 299.178  1.00  0.00     0.012 A 
BRANCH  28  31
HETATM   31  C   UNL     1     221.526 256.809 297.607  1.00  0.00     0.417 C 
HETATM   32  F   UNL     1     220.209 257.134 297.719  1.00  0.00    -0.166 F 
HETATM   33  F   UNL     1     222.192 257.630 298.468  1.00  0.00    -0.166 F 
HETATM   34  F   UNL     1     221.902 257.204 296.358  1.00  0.00    -0.166 F 
ENDBRANCH  28  31
ENDBRANCH  24  25
ENDBRANCH   3  23
TORSDOF 11
ENDMDL
