MODEL 1
REMARK VINA RESULT:     -11.8      0.000      0.000
REMARK  8 active torsions:
REMARK  status: ('A' for Active; 'I' for Inactive)
REMARK    1  A    between atoms: CAA_1  and  C5_17 
REMARK    2  A    between atoms: CAB_2  and  C7_20 
REMARK    3  A    between atoms: C5'_4  and  O5'_5 
REMARK    4  A    between atoms: O5'_5  and  C27_35 
REMARK    5  A    between atoms: C2'_8  and  C1'_9 
REMARK    6  A    between atoms: C1'_9  and  N9_22 
REMARK    7  A    between atoms: N1_11  and  C2_13 
REMARK    8  A    between atoms: S1_12  and  C23_31 
ROOT
HETATM    1  C4  T2Q H 403     221.714 247.903 298.958  1.00 47.19     0.081 A 
HETATM    2  O4  T2Q H 403     218.751 250.173 298.950  1.00 47.19    -0.171 OA
HETATM    3  C5  T2Q H 403     221.215 246.795 298.218  1.00 47.19     0.061 A 
HETATM    4  C8  T2Q H 403     219.566 249.064 298.713  1.00 47.19     0.195 A 
HETATM    5  N9  T2Q H 403     220.870 249.039 299.202  1.00 47.19    -0.301 N 
HETATM    6  C12 T2Q H 403     219.051 247.912 297.944  1.00 47.19     0.046 A 
HETATM    7  C13 T2Q H 403     219.872 246.811 297.710  1.00 47.19     0.009 A 
ENDROOT
BRANCH   5   8
HETATM    8  C1' T2Q H 403     221.395 250.154 299.954  1.00 47.19     0.135 C 
BRANCH   8   9
HETATM    9  C2' T2Q H 403     221.889 251.224 298.989  1.00 47.19     0.002 A 
HETATM   10  C16 T2Q H 403     222.773 250.893 297.984  1.00 47.19    -0.002 A 
HETATM   11  C17 T2Q H 403     223.219 251.868 297.110  1.00 47.19     0.001 A 
HETATM   12  C18 T2Q H 403     222.778 253.169 297.251  1.00 47.19     0.017 A 
HETATM   13  C2  T2Q H 403     221.892 253.501 298.254  1.00 47.19     0.056 A 
HETATM   14  C20 T2Q H 403     221.448 252.524 299.127  1.00 47.19     0.015 A 
BRANCH  13  15
HETATM   15  N1  T2Q H 403     221.436 254.869 298.402  1.00 47.19    -0.348 N 
HETATM   16  C21 T2Q H 403     220.239 255.162 299.140  1.00 47.19     0.102 C 
HETATM   17  C22 T2Q H 403     219.685 256.475 298.658  1.00 47.19     0.040 C 
HETATM   18  C23 T2Q H 403     220.628 257.606 299.021  1.00 47.19     0.112 C 
HETATM   19  C24 T2Q H 403     222.072 257.253 298.629  1.00 47.19     0.040 C 
HETATM   20  C25 T2Q H 403     222.181 255.960 297.799  1.00 47.19     0.102 C 
BRANCH  18  21
HETATM   21  S1  T2Q H 403     220.125 259.099 298.136  1.00 47.19     0.170 S 
HETATM   22  O3' T2Q H 403     219.445 258.769 296.884  1.00 47.19    -0.226 OA
HETATM   23  C26 T2Q H 403     219.084 260.122 299.212  1.00 47.19     0.140 C 
HETATM   24  OP1 T2Q H 403     221.287 259.838 297.645  1.00 47.19    -0.226 OA
ENDBRANCH  18  21
ENDBRANCH  13  15
ENDBRANCH   8   9
ENDBRANCH   5   8
BRANCH   3  25
HETATM   25  CAA T2Q H 403     222.125 245.600 297.974  1.00 47.19     0.210 A 
HETATM   26  N6  T2Q H 403     222.225 244.538 298.773  1.00 47.19    -0.199 NA
HETATM   27  C7  T2Q H 403     223.139 243.683 298.223  1.00 47.19     0.191 A 
HETATM   28  NAA T2Q H 403     223.592 244.226 297.091  1.00 47.19    -0.105 NA
HETATM   29  OP3 T2Q H 403     222.967 245.424 296.924  1.00 47.19    -0.190 OA
BRANCH  27  30
HETATM   30  CAB T2Q H 403     223.552 242.344 298.823  1.00 47.19     0.038 A 
HETATM   31  C1  T2Q H 403     222.661 241.288 298.878  1.00 47.19     0.005 A 
HETATM   32  C6  T2Q H 403     223.060 240.080 299.423  1.00 47.19     0.025 A 
HETATM   33  C5' T2Q H 403     224.348 239.930 299.914  1.00 47.19     0.102 A 
HETATM   34  C4' T2Q H 403     225.237 240.989 299.852  1.00 47.19     0.025 A 
HETATM   35  C3  T2Q H 403     224.838 242.197 299.307  1.00 47.19     0.005 A 
BRANCH  33  36
HETATM   36  O5' T2Q H 403     224.760 238.710 300.461  1.00 47.19    -0.253 OA
BRANCH  36  37
HETATM   37  C27 T2Q H 403     224.835 237.642 299.562  1.00 47.19     0.530 C 
HETATM   38  F1  T2Q H 403     225.077 238.130 298.310  1.00 47.19    -0.144 F 
HETATM   39  F2  T2Q H 403     223.651 236.965 299.561  1.00 47.19    -0.144 F 
HETATM   40  F3  T2Q H 403     225.848 236.803 299.922  1.00 47.19    -0.144 F 
ENDBRANCH  36  37
ENDBRANCH  33  36
ENDBRANCH  27  30
ENDBRANCH   3  25
TORSDOF 8
ENDMDL
MODEL 2
REMARK VINA RESULT:     -11.8      7.685     14.504
REMARK  8 active torsions:
REMARK  status: ('A' for Active; 'I' for Inactive)
REMARK    1  A    between atoms: CAA_1  and  C5_17 
REMARK    2  A    between atoms: CAB_2  and  C7_20 
REMARK    3  A    between atoms: C5'_4  and  O5'_5 
REMARK    4  A    between atoms: O5'_5  and  C27_35 
REMARK    5  A    between atoms: C2'_8  and  C1'_9 
REMARK    6  A    between atoms: C1'_9  and  N9_22 
REMARK    7  A    between atoms: N1_11  and  C2_13 
REMARK    8  A    between atoms: S1_12  and  C23_31 
ROOT
HETATM    1  C4  T2Q H 403     222.075 252.967 298.588  1.00 47.19     0.081 A 
HETATM    2  O4  T2Q H 403     223.616 249.641 297.879  1.00 47.19    -0.171 OA
HETATM    3  C5  T2Q H 403     222.510 253.719 297.460  1.00 47.19     0.061 A 
HETATM    4  C8  T2Q H 403     223.249 250.983 297.747  1.00 47.19     0.195 A 
HETATM    5  N9  T2Q H 403     222.458 251.589 298.720  1.00 47.19    -0.301 N 
HETATM    6  C12 T2Q H 403     223.698 251.766 296.577  1.00 47.19     0.046 A 
HETATM    7  C13 T2Q H 403     223.325 253.103 296.452  1.00 47.19     0.009 A 
ENDROOT
BRANCH   5   8
HETATM    8  C1' T2Q H 403     222.006 250.843 299.870  1.00 47.19     0.135 C 
BRANCH   8   9
HETATM    9  C2' T2Q H 403     220.887 249.899 299.450  1.00 47.19     0.002 A 
HETATM   10  C16 T2Q H 403     219.667 250.406 299.055  1.00 47.19    -0.002 A 
HETATM   11  C17 T2Q H 403     218.654 249.544 298.675  1.00 47.19     0.001 A 
HETATM   12  C18 T2Q H 403     218.869 248.181 298.694  1.00 47.19     0.017 A 
HETATM   13  C2  T2Q H 403     220.091 247.673 299.086  1.00 47.19     0.056 A 
HETATM   14  C20 T2Q H 403     221.102 248.536 299.466  1.00 47.19     0.015 A 
BRANCH  13  15
HETATM   15  N1  T2Q H 403     220.312 246.240 299.110  1.00 47.19    -0.348 N 
HETATM   16  C21 T2Q H 403     219.218 245.338 299.346  1.00 47.19     0.102 C 
HETATM   17  C22 T2Q H 403     219.766 244.051 299.901  1.00 47.19     0.040 C 
HETATM   18  C23 T2Q H 403     220.606 243.346 298.853  1.00 47.19     0.112 C 
HETATM   19  C24 T2Q H 403     221.600 244.325 298.207  1.00 47.19     0.040 C 
HETATM   20  C25 T2Q H 403     221.644 245.699 298.902  1.00 47.19     0.102 C 
BRANCH  18  21
HETATM   21  S1  T2Q H 403     221.528 242.007 299.642  1.00 47.19     0.170 S 
HETATM   22  O3' T2Q H 403     220.696 240.814 299.803  1.00 47.19    -0.226 OA
HETATM   23  C26 T2Q H 403     223.025 241.653 298.683  1.00 47.19     0.140 C 
HETATM   24  OP1 T2Q H 403     221.840 242.329 301.034  1.00 47.19    -0.226 OA
ENDBRANCH  18  21
ENDBRANCH  13  15
ENDBRANCH   8   9
ENDBRANCH   5   8
BRANCH   3  25
HETATM   25  CAA T2Q H 403     222.095 255.178 297.342  1.00 47.19     0.210 A 
HETATM   26  N6  T2Q H 403     221.263 255.807 298.172  1.00 47.19    -0.199 NA
HETATM   27  C7  T2Q H 403     221.136 257.098 297.743  1.00 47.19     0.191 A 
HETATM   28  NAA T2Q H 403     221.892 257.253 296.653  1.00 47.19    -0.105 NA
HETATM   29  OP3 T2Q H 403     222.497 256.061 296.393  1.00 47.19    -0.190 OA
BRANCH  27  30
HETATM   30  CAB T2Q H 403     220.272 258.159 298.412  1.00 47.19     0.038 A 
HETATM   31  C1  T2Q H 403     220.155 259.424 297.866  1.00 47.19     0.005 A 
HETATM   32  C6  T2Q H 403     219.359 260.371 298.488  1.00 47.19     0.025 A 
HETATM   33  C5' T2Q H 403     218.684 260.053 299.657  1.00 47.19     0.102 A 
HETATM   34  C4' T2Q H 403     218.802 258.783 300.197  1.00 47.19     0.025 A 
HETATM   35  C3  T2Q H 403     219.596 257.837 299.574  1.00 47.19     0.005 A 
BRANCH  33  36
HETATM   36  O5' T2Q H 403     217.874 261.003 300.288  1.00 47.19    -0.253 OA
BRANCH  36  37
HETATM   37  C27 T2Q H 403     218.530 261.855 301.181  1.00 47.19     0.530 C 
HETATM   38  F1  T2Q H 403     217.604 262.623 301.824  1.00 47.19    -0.144 F 
HETATM   39  F2  T2Q H 403     219.386 262.663 300.491  1.00 47.19    -0.144 F 
HETATM   40  F3  T2Q H 403     219.223 261.122 302.098  1.00 47.19    -0.144 F 
ENDBRANCH  36  37
ENDBRANCH  33  36
ENDBRANCH  27  30
ENDBRANCH   3  25
TORSDOF 8
ENDMDL
MODEL 3
REMARK VINA RESULT:     -11.5      8.301     15.482
REMARK  8 active torsions:
REMARK  status: ('A' for Active; 'I' for Inactive)
REMARK    1  A    between atoms: CAA_1  and  C5_17 
REMARK    2  A    between atoms: CAB_2  and  C7_20 
REMARK    3  A    between atoms: C5'_4  and  O5'_5 
REMARK    4  A    between atoms: O5'_5  and  C27_35 
REMARK    5  A    between atoms: C2'_8  and  C1'_9 
REMARK    6  A    between atoms: C1'_9  and  N9_22 
REMARK    7  A    between atoms: N1_11  and  C2_13 
REMARK    8  A    between atoms: S1_12  and  C23_31 
ROOT
HETATM    1  C4  T2Q H 403     220.938 253.783 299.685  1.00 47.19     0.081 A 
HETATM    2  O4  T2Q H 403     223.253 251.573 297.763  1.00 47.19    -0.171 OA
HETATM    3  C5  T2Q H 403     220.953 254.961 298.886  1.00 47.19     0.061 A 
HETATM    4  C8  T2Q H 403     222.494 252.685 298.138  1.00 47.19     0.195 A 
HETATM    5  N9  T2Q H 403     221.722 252.645 299.296  1.00 47.19    -0.301 N 
HETATM    6  C12 T2Q H 403     222.507 253.909 297.310  1.00 47.19     0.046 A 
HETATM    7  C13 T2Q H 403     221.746 255.012 297.690  1.00 47.19     0.009 A 
ENDROOT
BRANCH   5   8
HETATM    8  C1' T2Q H 403     221.692 251.459 300.120  1.00 47.19     0.135 C 
BRANCH   8   9
HETATM    9  C2' T2Q H 403     220.610 250.517 299.607  1.00 47.19     0.002 A 
HETATM   10  C16 T2Q H 403     219.377 251.016 299.243  1.00 47.19    -0.002 A 
HETATM   11  C17 T2Q H 403     218.397 250.157 298.779  1.00 47.19     0.001 A 
HETATM   12  C18 T2Q H 403     218.659 248.805 298.684  1.00 47.19     0.017 A 
HETATM   13  C2  T2Q H 403     219.893 248.306 299.046  1.00 47.19     0.056 A 
HETATM   14  C20 T2Q H 403     220.870 249.166 299.510  1.00 47.19     0.015 A 
BRANCH  13  15
HETATM   15  N1  T2Q H 403     220.161 246.884 298.951  1.00 47.19    -0.348 N 
HETATM   16  C21 T2Q H 403     219.446 246.069 298.010  1.00 47.19     0.102 C 
HETATM   17  C22 T2Q H 403     219.454 244.646 298.500  1.00 47.19     0.040 C 
HETATM   18  C23 T2Q H 403     220.865 244.091 298.470  1.00 47.19     0.112 C 
HETATM   19  C24 T2Q H 403     221.849 245.077 299.122  1.00 47.19     0.040 C 
HETATM   20  C25 T2Q H 403     221.154 246.265 299.813  1.00 47.19     0.102 C 
BRANCH  18  21
HETATM   21  S1  T2Q H 403     220.904 242.531 299.382  1.00 47.19     0.170 S 
HETATM   22  O3' T2Q H 403     219.564 242.140 299.819  1.00 47.19    -0.226 OA
HETATM   23  C26 T2Q H 403     221.674 241.248 298.358  1.00 47.19     0.140 C 
HETATM   24  OP1 T2Q H 403     221.591 242.685 300.663  1.00 47.19    -0.226 OA
ENDBRANCH  18  21
ENDBRANCH  13  15
ENDBRANCH   8   9
ENDBRANCH   5   8
BRANCH   3  25
HETATM   25  CAA T2Q H 403     220.117 256.156 299.318  1.00 47.19     0.210 A 
HETATM   26  N6  T2Q H 403     220.288 257.406 298.887  1.00 47.19    -0.199 NA
HETATM   27  C7  T2Q H 403     219.351 258.193 299.496  1.00 47.19     0.191 A 
HETATM   28  NAA T2Q H 403     218.611 257.421 300.296  1.00 47.19    -0.105 NA
HETATM   29  OP3 T2Q H 403     219.079 256.146 300.193  1.00 47.19    -0.190 OA
BRANCH  27  30
HETATM   30  CAB T2Q H 403     219.201 259.694 299.283  1.00 47.19     0.038 A 
HETATM   31  C1  T2Q H 403     218.405 260.452 300.123  1.00 47.19     0.005 A 
HETATM   32  C6  T2Q H 403     218.287 261.815 299.912  1.00 47.19     0.025 A 
HETATM   33  C5' T2Q H 403     218.962 262.418 298.862  1.00 47.19     0.102 A 
HETATM   34  C4' T2Q H 403     219.760 261.655 298.027  1.00 47.19     0.025 A 
HETATM   35  C3  T2Q H 403     219.879 260.292 298.237  1.00 47.19     0.005 A 
BRANCH  33  36
HETATM   36  O5' T2Q H 403     218.852 263.796 298.647  1.00 47.19    -0.253 OA
BRANCH  36  37
HETATM   37  C27 T2Q H 403     217.671 264.216 298.029  1.00 47.19     0.530 C 
HETATM   38  F1  T2Q H 403     216.717 264.419 298.984  1.00 47.19    -0.144 F 
HETATM   39  F2  T2Q H 403     217.244 263.253 297.162  1.00 47.19    -0.144 F 
HETATM   40  F3  T2Q H 403     217.889 265.382 297.356  1.00 47.19    -0.144 F 
ENDBRANCH  36  37
ENDBRANCH  33  36
ENDBRANCH  27  30
ENDBRANCH   3  25
TORSDOF 8
ENDMDL
MODEL 4
REMARK VINA RESULT:     -11.4      8.106     15.123
REMARK  8 active torsions:
REMARK  status: ('A' for Active; 'I' for Inactive)
REMARK    1  A    between atoms: CAA_1  and  C5_17 
REMARK    2  A    between atoms: CAB_2  and  C7_20 
REMARK    3  A    between atoms: C5'_4  and  O5'_5 
REMARK    4  A    between atoms: O5'_5  and  C27_35 
REMARK    5  A    between atoms: C2'_8  and  C1'_9 
REMARK    6  A    between atoms: C1'_9  and  N9_22 
REMARK    7  A    between atoms: N1_11  and  C2_13 
REMARK    8  A    between atoms: S1_12  and  C23_31 
ROOT
HETATM    1  C4  T2Q H 403     221.328 252.738 299.647  1.00 47.19     0.081 A 
HETATM    2  O4  T2Q H 403     223.568 250.520 297.647  1.00 47.19    -0.171 OA
HETATM    3  C5  T2Q H 403     221.357 253.931 298.872  1.00 47.19     0.061 A 
HETATM    4  C8  T2Q H 403     222.838 251.640 298.056  1.00 47.19     0.195 A 
HETATM    5  N9  T2Q H 403     222.083 251.592 299.224  1.00 47.19    -0.301 N 
HETATM    6  C12 T2Q H 403     222.865 252.879 297.252  1.00 47.19     0.046 A 
HETATM    7  C13 T2Q H 403     222.133 253.990 297.665  1.00 47.19     0.009 A 
ENDROOT
BRANCH   5   8
HETATM    8  C1' T2Q H 403     222.040 250.391 300.024  1.00 47.19     0.135 C 
BRANCH   8   9
HETATM    9  C2' T2Q H 403     221.043 249.414 299.414  1.00 47.19     0.002 A 
HETATM   10  C16 T2Q H 403     219.891 249.885 298.818  1.00 47.19    -0.002 A 
HETATM   11  C17 T2Q H 403     218.989 248.995 298.266  1.00 47.19     0.001 A 
HETATM   12  C18 T2Q H 403     219.244 247.639 298.315  1.00 47.19     0.017 A 
HETATM   13  C2  T2Q H 403     220.397 247.168 298.907  1.00 47.19     0.056 A 
HETATM   14  C20 T2Q H 403     221.298 248.059 299.460  1.00 47.19     0.015 A 
BRANCH  13  15
HETATM   15  N1  T2Q H 403     220.660 245.743 298.962  1.00 47.19    -0.348 N 
HETATM   16  C21 T2Q H 403     219.770 244.813 298.323  1.00 47.19     0.102 C 
HETATM   17  C22 T2Q H 403     219.904 243.475 298.999  1.00 47.19     0.040 C 
HETATM   18  C23 T2Q H 403     221.283 242.898 298.746  1.00 47.19     0.112 C 
HETATM   19  C24 T2Q H 403     222.370 243.950 299.023  1.00 47.19     0.040 C 
HETATM   20  C25 T2Q H 403     221.823 245.237 299.670  1.00 47.19     0.102 C 
BRANCH  18  21
HETATM   21  S1  T2Q H 403     221.540 241.484 299.842  1.00 47.19     0.170 S 
HETATM   22  O3' T2Q H 403     222.244 240.402 299.155  1.00 47.19    -0.226 OA
HETATM   23  C26 T2Q H 403     222.428 242.022 301.329  1.00 47.19     0.140 C 
HETATM   24  OP1 T2Q H 403     220.272 240.836 300.174  1.00 47.19    -0.226 OA
ENDBRANCH  18  21
ENDBRANCH  13  15
ENDBRANCH   8   9
ENDBRANCH   5   8
BRANCH   3  25
HETATM   25  CAA T2Q H 403     220.552 255.135 299.340  1.00 47.19     0.210 A 
HETATM   26  N6  T2Q H 403     220.621 256.355 298.809  1.00 47.19    -0.199 NA
HETATM   27  C7  T2Q H 403     219.755 257.162 299.492  1.00 47.19     0.191 A 
HETATM   28  NAA T2Q H 403     219.160 256.430 300.438  1.00 47.19    -0.105 NA
HETATM   29  OP3 T2Q H 403     219.649 255.162 300.353  1.00 47.19    -0.190 OA
BRANCH  27  30
HETATM   30  CAB T2Q H 403     219.529 258.641 299.205  1.00 47.19     0.038 A 
HETATM   31  C1  T2Q H 403     220.045 259.227 298.064  1.00 47.19     0.005 A 
HETATM   32  C6  T2Q H 403     219.822 260.572 297.822  1.00 47.19     0.025 A 
HETATM   33  C5' T2Q H 403     219.086 261.328 298.721  1.00 47.19     0.102 A 
HETATM   34  C4' T2Q H 403     218.569 260.735 299.860  1.00 47.19     0.025 A 
HETATM   35  C3  T2Q H 403     218.791 259.391 300.102  1.00 47.19     0.005 A 
BRANCH  33  36
HETATM   36  O5' T2Q H 403     218.852 262.686 298.480  1.00 47.19    -0.253 OA
BRANCH  36  37
HETATM   37  C27 T2Q H 403     219.873 263.553 298.879  1.00 47.19     0.530 C 
HETATM   38  F1  T2Q H 403     219.395 264.831 298.886  1.00 47.19    -0.144 F 
HETATM   39  F2  T2Q H 403     220.913 263.466 298.001  1.00 47.19    -0.144 F 
HETATM   40  F3  T2Q H 403     220.297 263.225 300.133  1.00 47.19    -0.144 F 
ENDBRANCH  36  37
ENDBRANCH  33  36
ENDBRANCH  27  30
ENDBRANCH   3  25
TORSDOF 8
ENDMDL
MODEL 5
REMARK VINA RESULT:     -11.3      8.016     14.939
REMARK  8 active torsions:
REMARK  status: ('A' for Active; 'I' for Inactive)
REMARK    1  A    between atoms: CAA_1  and  C5_17 
REMARK    2  A    between atoms: CAB_2  and  C7_20 
REMARK    3  A    between atoms: C5'_4  and  O5'_5 
REMARK    4  A    between atoms: O5'_5  and  C27_35 
REMARK    5  A    between atoms: C2'_8  and  C1'_9 
REMARK    6  A    between atoms: C1'_9  and  N9_22 
REMARK    7  A    between atoms: N1_11  and  C2_13 
REMARK    8  A    between atoms: S1_12  and  C23_31 
ROOT
HETATM    1  C4  T2Q H 403     221.531 254.076 298.775  1.00 47.19     0.081 A 
HETATM    2  O4  T2Q H 403     223.292 250.891 297.945  1.00 47.19    -0.171 OA
HETATM    3  C5  T2Q H 403     221.900 254.893 297.670  1.00 47.19     0.061 A 
HETATM    4  C8  T2Q H 403     222.831 252.208 297.860  1.00 47.19     0.195 A 
HETATM    5  N9  T2Q H 403     222.010 252.725 298.859  1.00 47.19    -0.301 N 
HETATM    6  C12 T2Q H 403     223.212 253.057 296.713  1.00 47.19     0.046 A 
HETATM    7  C13 T2Q H 403     222.745 254.368 296.635  1.00 47.19     0.009 A 
ENDROOT
BRANCH   5   8
HETATM    8  C1' T2Q H 403     221.623 251.913 299.988  1.00 47.19     0.135 C 
BRANCH   8   9
HETATM    9  C2' T2Q H 403     220.553 250.920 299.551  1.00 47.19     0.002 A 
HETATM   10  C16 T2Q H 403     219.320 251.374 299.133  1.00 47.19    -0.002 A 
HETATM   11  C17 T2Q H 403     218.351 250.470 298.738  1.00 47.19     0.001 A 
HETATM   12  C18 T2Q H 403     218.624 249.116 298.766  1.00 47.19     0.017 A 
HETATM   13  C2  T2Q H 403     219.858 248.662 299.181  1.00 47.19     0.056 A 
HETATM   14  C20 T2Q H 403     220.825 249.568 299.576  1.00 47.19     0.015 A 
BRANCH  13  15
HETATM   15  N1  T2Q H 403     220.139 247.240 299.214  1.00 47.19    -0.348 N 
HETATM   16  C21 T2Q H 403     220.860 246.665 300.316  1.00 47.19     0.102 C 
HETATM   17  C22 T2Q H 403     221.516 245.392 299.851  1.00 47.19     0.040 C 
HETATM   18  C23 T2Q H 403     220.462 244.353 299.517  1.00 47.19     0.112 C 
HETATM   19  C24 T2Q H 403     219.367 244.959 298.624  1.00 47.19     0.040 C 
HETATM   20  C25 T2Q H 403     219.701 246.379 298.128  1.00 47.19     0.102 C 
BRANCH  18  21
HETATM   21  S1  T2Q H 403     221.246 242.982 298.640  1.00 47.19     0.170 S 
HETATM   22  O3' T2Q H 403     222.653 243.266 298.361  1.00 47.19    -0.226 OA
HETATM   23  C26 T2Q H 403     221.049 241.455 299.598  1.00 47.19     0.140 C 
HETATM   24  OP1 T2Q H 403     220.708 242.844 297.287  1.00 47.19    -0.226 OA
ENDBRANCH  18  21
ENDBRANCH  13  15
ENDBRANCH   8   9
ENDBRANCH   5   8
BRANCH   3  25
HETATM   25  CAA T2Q H 403     221.382 256.322 297.603  1.00 47.19     0.210 A 
HETATM   26  N6  T2Q H 403     220.729 256.946 298.582  1.00 47.19    -0.199 NA
HETATM   27  C7  T2Q H 403     220.430 258.208 298.151  1.00 47.19     0.191 A 
HETATM   28  NAA T2Q H 403     220.904 258.350 296.911  1.00 47.19    -0.105 NA
HETATM   29  OP3 T2Q H 403     221.502 257.179 296.557  1.00 47.19    -0.190 OA
BRANCH  27  30
HETATM   30  CAB T2Q H 403     219.681 259.255 298.968  1.00 47.19     0.038 A 
HETATM   31  C1  T2Q H 403     219.071 258.917 300.162  1.00 47.19     0.005 A 
HETATM   32  C6  T2Q H 403     218.401 259.886 300.889  1.00 47.19     0.025 A 
HETATM   33  C5' T2Q H 403     218.338 261.189 300.420  1.00 47.19     0.102 A 
HETATM   34  C4' T2Q H 403     218.954 261.522 299.225  1.00 47.19     0.025 A 
HETATM   35  C3  T2Q H 403     219.626 260.554 298.499  1.00 47.19     0.005 A 
BRANCH  33  36
HETATM   36  O5' T2Q H 403     217.667 262.174 301.152  1.00 47.19    -0.253 OA
BRANCH  36  37
HETATM   37  C27 T2Q H 403     216.447 262.595 300.617  1.00 47.19     0.530 C 
HETATM   38  F1  T2Q H 403     215.442 262.244 301.471  1.00 47.19    -0.144 F 
HETATM   39  F2  T2Q H 403     216.246 261.988 299.411  1.00 47.19    -0.144 F 
HETATM   40  F3  T2Q H 403     216.451 263.949 300.459  1.00 47.19    -0.144 F 
ENDBRANCH  36  37
ENDBRANCH  33  36
ENDBRANCH  27  30
ENDBRANCH   3  25
TORSDOF 8
ENDMDL
MODEL 6
REMARK VINA RESULT:     -11.1      7.133     14.162
REMARK  8 active torsions:
REMARK  status: ('A' for Active; 'I' for Inactive)
REMARK    1  A    between atoms: CAA_1  and  C5_17 
REMARK    2  A    between atoms: CAB_2  and  C7_20 
REMARK    3  A    between atoms: C5'_4  and  O5'_5 
REMARK    4  A    between atoms: O5'_5  and  C27_35 
REMARK    5  A    between atoms: C2'_8  and  C1'_9 
REMARK    6  A    between atoms: C1'_9  and  N9_22 
REMARK    7  A    between atoms: N1_11  and  C2_13 
REMARK    8  A    between atoms: S1_12  and  C23_31 
ROOT
HETATM    1  C4  T2Q H 403     220.888 249.405 298.095  1.00 47.19     0.081 A 
HETATM    2  O4  T2Q H 403     223.371 247.067 296.576  1.00 47.19    -0.171 OA
HETATM    3  C5  T2Q H 403     221.730 250.478 298.500  1.00 47.19     0.061 A 
HETATM    4  C8  T2Q H 403     222.825 248.187 297.209  1.00 47.19     0.195 A 
HETATM    5  N9  T2Q H 403     221.455 248.255 297.448  1.00 47.19    -0.301 N 
HETATM    6  C12 T2Q H 403     223.697 249.303 297.629  1.00 47.19     0.046 A 
HETATM    7  C13 T2Q H 403     223.144 250.417 298.257  1.00 47.19     0.009 A 
ENDROOT
BRANCH   5   8
HETATM    8  C1' T2Q H 403     220.583 247.177 297.045  1.00 47.19     0.135 C 
BRANCH   8   9
HETATM    9  C2' T2Q H 403     220.411 246.207 298.207  1.00 47.19     0.002 A 
HETATM   10  C16 T2Q H 403     219.357 246.359 299.083  1.00 47.19    -0.002 A 
HETATM   11  C17 T2Q H 403     219.205 245.477 300.137  1.00 47.19     0.001 A 
HETATM   12  C18 T2Q H 403     220.111 244.449 300.307  1.00 47.19     0.017 A 
HETATM   13  C2  T2Q H 403     221.164 244.294 299.429  1.00 47.19     0.056 A 
HETATM   14  C20 T2Q H 403     221.314 245.177 298.377  1.00 47.19     0.015 A 
BRANCH  13  15
HETATM   15  N1  T2Q H 403     222.116 243.216 299.614  1.00 47.19    -0.348 N 
HETATM   16  C21 T2Q H 403     221.992 241.997 298.864  1.00 47.19     0.102 C 
HETATM   17  C22 T2Q H 403     222.669 240.891 299.627  1.00 47.19     0.040 C 
HETATM   18  C23 T2Q H 403     224.164 241.136 299.687  1.00 47.19     0.112 C 
HETATM   19  C24 T2Q H 403     224.459 242.583 300.115  1.00 47.19     0.040 C 
HETATM   20  C25 T2Q H 403     223.204 243.354 300.567  1.00 47.19     0.102 C 
BRANCH  18  21
HETATM   21  S1  T2Q H 403     224.899 240.005 300.889  1.00 47.19     0.170 S 
HETATM   22  O3' T2Q H 403     224.272 240.147 302.203  1.00 47.19    -0.226 OA
HETATM   23  C26 T2Q H 403     224.780 238.303 300.273  1.00 47.19     0.140 C 
HETATM   24  OP1 T2Q H 403     226.281 240.377 301.189  1.00 47.19    -0.226 OA
ENDBRANCH  18  21
ENDBRANCH  13  15
ENDBRANCH   8   9
ENDBRANCH   5   8
BRANCH   3  25
HETATM   25  CAA T2Q H 403     221.109 251.685 299.186  1.00 47.19     0.210 A 
HETATM   26  N6  T2Q H 403     221.234 252.947 298.777  1.00 47.19    -0.199 NA
HETATM   27  C7  T2Q H 403     220.539 253.742 299.644  1.00 47.19     0.191 A 
HETATM   28  NAA T2Q H 403     219.991 252.963 300.579  1.00 47.19    -0.105 NA
HETATM   29  OP3 T2Q H 403     220.339 251.675 300.304  1.00 47.19    -0.190 OA
BRANCH  27  30
HETATM   30  CAB T2Q H 403     220.427 255.258 299.539  1.00 47.19     0.038 A 
HETATM   31  C1  T2Q H 403     221.433 256.004 298.953  1.00 47.19     0.005 A 
HETATM   32  C6  T2Q H 403     221.307 257.380 298.865  1.00 47.19     0.025 A 
HETATM   33  C5' T2Q H 403     220.177 258.008 299.365  1.00 47.19     0.102 A 
HETATM   34  C4' T2Q H 403     219.171 257.256 299.947  1.00 47.19     0.025 A 
HETATM   35  C3  T2Q H 403     219.296 255.881 300.035  1.00 47.19     0.005 A 
BRANCH  33  36
HETATM   36  O5' T2Q H 403     220.040 259.397 299.274  1.00 47.19    -0.253 OA
BRANCH  36  37
HETATM   37  C27 T2Q H 403     219.935 259.908 297.978  1.00 47.19     0.530 C 
HETATM   38  F1  T2Q H 403     221.180 260.243 297.529  1.00 47.19    -0.144 F 
HETATM   39  F2  T2Q H 403     219.146 261.022 297.991  1.00 47.19    -0.144 F 
HETATM   40  F3  T2Q H 403     219.395 258.968 297.151  1.00 47.19    -0.144 F 
ENDBRANCH  36  37
ENDBRANCH  33  36
ENDBRANCH  27  30
ENDBRANCH   3  25
TORSDOF 8
ENDMDL
MODEL 7
REMARK VINA RESULT:     -11.1      6.980     14.207
REMARK  8 active torsions:
REMARK  status: ('A' for Active; 'I' for Inactive)
REMARK    1  A    between atoms: CAA_1  and  C5_17 
REMARK    2  A    between atoms: CAB_2  and  C7_20 
REMARK    3  A    between atoms: C5'_4  and  O5'_5 
REMARK    4  A    between atoms: O5'_5  and  C27_35 
REMARK    5  A    between atoms: C2'_8  and  C1'_9 
REMARK    6  A    between atoms: C1'_9  and  N9_22 
REMARK    7  A    between atoms: N1_11  and  C2_13 
REMARK    8  A    between atoms: S1_12  and  C23_31 
ROOT
HETATM    1  C4  T2Q H 403     221.263 247.748 299.678  1.00 47.19     0.081 A 
HETATM    2  O4  T2Q H 403     219.207 245.031 298.151  1.00 47.19    -0.171 OA
HETATM    3  C5  T2Q H 403     220.645 248.905 299.126  1.00 47.19     0.061 A 
HETATM    4  C8  T2Q H 403     219.685 246.304 298.476  1.00 47.19     0.195 A 
HETATM    5  N9  T2Q H 403     220.769 246.443 299.338  1.00 47.19    -0.301 N 
HETATM    6  C12 T2Q H 403     219.045 247.507 297.905  1.00 47.19     0.046 A 
HETATM    7  C13 T2Q H 403     219.526 248.772 298.236  1.00 47.19     0.009 A 
ENDROOT
BRANCH   5   8
HETATM    8  C1' T2Q H 403     221.409 245.281 299.909  1.00 47.19     0.135 C 
BRANCH   8   9
HETATM    9  C2' T2Q H 403     222.367 244.681 298.888  1.00 47.19     0.002 A 
HETATM   10  C16 T2Q H 403     222.553 245.299 297.669  1.00 47.19    -0.002 A 
HETATM   11  C17 T2Q H 403     223.423 244.751 296.744  1.00 47.19     0.001 A 
HETATM   12  C18 T2Q H 403     224.101 243.586 297.046  1.00 47.19     0.017 A 
HETATM   13  C2  T2Q H 403     223.918 242.969 298.266  1.00 47.19     0.056 A 
HETATM   14  C20 T2Q H 403     223.047 243.519 299.189  1.00 47.19     0.015 A 
BRANCH  13  15
HETATM   15  N1  T2Q H 403     224.627 241.743 298.578  1.00 47.19    -0.348 N 
HETATM   16  C21 T2Q H 403     225.628 241.234 297.682  1.00 47.19     0.102 C 
HETATM   17  C22 T2Q H 403     225.758 239.750 297.899  1.00 47.19     0.040 C 
HETATM   18  C23 T2Q H 403     226.321 239.471 299.279  1.00 47.19     0.112 C 
HETATM   19  C24 T2Q H 403     225.569 240.285 300.346  1.00 47.19     0.040 C 
HETATM   20  C25 T2Q H 403     224.327 241.011 299.796  1.00 47.19     0.102 C 
BRANCH  18  21
HETATM   21  S1  T2Q H 403     226.137 237.711 299.644  1.00 47.19     0.170 S 
HETATM   22  O3' T2Q H 403     226.664 237.386 300.970  1.00 47.19    -0.226 OA
HETATM   23  C26 T2Q H 403     224.394 237.236 299.484  1.00 47.19     0.140 C 
HETATM   24  OP1 T2Q H 403     227.000 236.900 298.786  1.00 47.19    -0.226 OA
ENDBRANCH  18  21
ENDBRANCH  13  15
ENDBRANCH   8   9
ENDBRANCH   5   8
BRANCH   3  25
HETATM   25  CAA T2Q H 403     221.185 250.278 299.497  1.00 47.19     0.210 A 
HETATM   26  N6  T2Q H 403     220.707 251.437 299.046  1.00 47.19    -0.199 NA
HETATM   27  C7  T2Q H 403     221.447 252.443 299.600  1.00 47.19     0.191 A 
HETATM   28  NAA T2Q H 403     222.375 251.894 300.389  1.00 47.19    -0.105 NA
HETATM   29  OP3 T2Q H 403     222.222 250.542 300.334  1.00 47.19    -0.190 OA
BRANCH  27  30
HETATM   30  CAB T2Q H 403     221.231 253.929 299.344  1.00 47.19     0.038 A 
HETATM   31  C1  T2Q H 403     220.207 254.614 299.972  1.00 47.19     0.005 A 
HETATM   32  C6  T2Q H 403     220.033 255.966 299.727  1.00 47.19     0.025 A 
HETATM   33  C5' T2Q H 403     220.880 256.629 298.853  1.00 47.19     0.102 A 
HETATM   34  C4' T2Q H 403     221.906 255.939 298.230  1.00 47.19     0.025 A 
HETATM   35  C3  T2Q H 403     222.081 254.588 298.475  1.00 47.19     0.005 A 
BRANCH  33  36
HETATM   36  O5' T2Q H 403     220.714 257.996 298.605  1.00 47.19    -0.253 OA
BRANCH  36  37
HETATM   37  C27 T2Q H 403     220.126 258.318 297.379  1.00 47.19     0.530 C 
HETATM   38  F1  T2Q H 403     221.102 258.421 296.430  1.00 47.19    -0.144 F 
HETATM   39  F2  T2Q H 403     219.473 259.511 297.487  1.00 47.19    -0.144 F 
HETATM   40  F3  T2Q H 403     219.247 257.340 297.015  1.00 47.19    -0.144 F 
ENDBRANCH  36  37
ENDBRANCH  33  36
ENDBRANCH  27  30
ENDBRANCH   3  25
TORSDOF 8
ENDMDL
MODEL 8
REMARK VINA RESULT:     -11.0      6.948     13.985
REMARK  8 active torsions:
REMARK  status: ('A' for Active; 'I' for Inactive)
REMARK    1  A    between atoms: CAA_1  and  C5_17 
REMARK    2  A    between atoms: CAB_2  and  C7_20 
REMARK    3  A    between atoms: C5'_4  and  O5'_5 
REMARK    4  A    between atoms: O5'_5  and  C27_35 
REMARK    5  A    between atoms: C2'_8  and  C1'_9 
REMARK    6  A    between atoms: C1'_9  and  N9_22 
REMARK    7  A    between atoms: N1_11  and  C2_13 
REMARK    8  A    between atoms: S1_12  and  C23_31 
ROOT
HETATM    1  C4  T2Q H 403     221.430 247.578 297.863  1.00 47.19     0.081 A 
HETATM    2  O4  T2Q H 403     220.156 245.124 300.371  1.00 47.19    -0.171 OA
HETATM    3  C5  T2Q H 403     221.730 248.692 298.695  1.00 47.19     0.061 A 
HETATM    4  C8  T2Q H 403     220.673 246.296 299.813  1.00 47.19     0.195 A 
HETATM    5  N9  T2Q H 403     220.895 246.377 298.441  1.00 47.19    -0.301 N 
HETATM    6  C12 T2Q H 403     220.987 247.454 300.675  1.00 47.19     0.046 A 
HETATM    7  C13 T2Q H 403     221.506 248.618 300.111  1.00 47.19     0.009 A 
ENDROOT
BRANCH   5   8
HETATM    8  C1' T2Q H 403     220.597 245.257 297.580  1.00 47.19     0.135 C 
BRANCH   8   9
HETATM    9  C2' T2Q H 403     221.899 244.602 297.138  1.00 47.19     0.002 A 
HETATM   10  C16 T2Q H 403     222.574 245.082 296.034  1.00 47.19    -0.002 A 
HETATM   11  C17 T2Q H 403     223.756 244.484 295.636  1.00 47.19     0.001 A 
HETATM   12  C18 T2Q H 403     224.253 243.408 296.344  1.00 47.19     0.017 A 
HETATM   13  C2  T2Q H 403     223.581 242.929 297.450  1.00 47.19     0.056 A 
HETATM   14  C20 T2Q H 403     222.399 243.528 297.845  1.00 47.19     0.015 A 
BRANCH  13  15
HETATM   15  N1  T2Q H 403     224.103 241.796 298.187  1.00 47.19    -0.348 N 
HETATM   16  C21 T2Q H 403     225.485 241.423 298.067  1.00 47.19     0.102 C 
HETATM   17  C22 T2Q H 403     225.622 239.964 298.410  1.00 47.19     0.040 C 
HETATM   18  C23 T2Q H 403     225.306 239.739 299.876  1.00 47.19     0.112 C 
HETATM   19  C24 T2Q H 403     223.994 240.443 300.261  1.00 47.19     0.040 C 
HETATM   20  C25 T2Q H 403     223.232 241.018 299.052  1.00 47.19     0.102 C 
BRANCH  18  21
HETATM   21  S1  T2Q H 403     225.133 237.966 300.176  1.00 47.19     0.170 S 
HETATM   22  O3' T2Q H 403     224.000 237.412 299.436  1.00 47.19    -0.226 OA
HETATM   23  C26 T2Q H 403     226.683 237.124 299.753  1.00 47.19     0.140 C 
HETATM   24  OP1 T2Q H 403     224.733 237.700 301.557  1.00 47.19    -0.226 OA
ENDBRANCH  18  21
ENDBRANCH  13  15
ENDBRANCH   8   9
ENDBRANCH   5   8
BRANCH   3  25
HETATM   25  CAA T2Q H 403     222.294 249.955 298.061  1.00 47.19     0.210 A 
HETATM   26  N6  T2Q H 403     221.862 251.193 298.304  1.00 47.19    -0.199 NA
HETATM   27  C7  T2Q H 403     222.610 252.055 297.553  1.00 47.19     0.191 A 
HETATM   28  NAA T2Q H 403     223.496 251.342 296.854  1.00 47.19    -0.105 NA
HETATM   29  OP3 T2Q H 403     223.309 250.028 297.163  1.00 47.19    -0.190 OA
BRANCH  27  30
HETATM   30  CAB T2Q H 403     222.439 253.569 297.533  1.00 47.19     0.038 A 
HETATM   31  C1  T2Q H 403     223.024 254.334 296.541  1.00 47.19     0.005 A 
HETATM   32  C6  T2Q H 403     222.851 255.708 296.541  1.00 47.19     0.025 A 
HETATM   33  C5' T2Q H 403     222.096 256.314 297.533  1.00 47.19     0.102 A 
HETATM   34  C4' T2Q H 403     221.510 255.543 298.522  1.00 47.19     0.025 A 
HETATM   35  C3  T2Q H 403     221.682 254.169 298.522  1.00 47.19     0.005 A 
BRANCH  33  36
HETATM   36  O5' T2Q H 403     221.913 257.701 297.536  1.00 47.19    -0.253 OA
BRANCH  36  37
HETATM   37  C27 T2Q H 403     220.715 258.151 296.973  1.00 47.19     0.530 C 
HETATM   38  F1  T2Q H 403     220.911 259.394 296.445  1.00 47.19    -0.144 F 
HETATM   39  F2  T2Q H 403     219.755 258.218 297.940  1.00 47.19    -0.144 F 
HETATM   40  F3  T2Q H 403     220.319 257.299 295.985  1.00 47.19    -0.144 F 
ENDBRANCH  36  37
ENDBRANCH  33  36
ENDBRANCH  27  30
ENDBRANCH   3  25
TORSDOF 8
ENDMDL
MODEL 9
REMARK VINA RESULT:     -10.8      7.682     13.039
REMARK  8 active torsions:
REMARK  status: ('A' for Active; 'I' for Inactive)
REMARK    1  A    between atoms: CAA_1  and  C5_17 
REMARK    2  A    between atoms: CAB_2  and  C7_20 
REMARK    3  A    between atoms: C5'_4  and  O5'_5 
REMARK    4  A    between atoms: O5'_5  and  C27_35 
REMARK    5  A    between atoms: C2'_8  and  C1'_9 
REMARK    6  A    between atoms: C1'_9  and  N9_22 
REMARK    7  A    between atoms: N1_11  and  C2_13 
REMARK    8  A    between atoms: S1_12  and  C23_31 
ROOT
HETATM    1  C4  T2Q H 403     218.842 261.447 298.254  1.00 47.19     0.081 A 
HETATM    2  O4  T2Q H 403     216.739 263.785 300.264  1.00 47.19    -0.171 OA
HETATM    3  C5  T2Q H 403     219.152 260.452 299.222  1.00 47.19     0.061 A 
HETATM    4  C8  T2Q H 403     217.534 262.691 299.915  1.00 47.19     0.195 A 
HETATM    5  N9  T2Q H 403     218.027 262.572 298.619  1.00 47.19    -0.301 N 
HETATM    6  C12 T2Q H 403     217.856 261.655 300.919  1.00 47.19     0.046 A 
HETATM    7  C13 T2Q H 403     218.647 260.565 300.561  1.00 47.19     0.009 A 
ENDROOT
BRANCH   5   8
HETATM    8  C1' T2Q H 403     217.724 263.571 297.621  1.00 47.19     0.135 C 
BRANCH   8   9
HETATM    9  C2' T2Q H 403     218.510 264.840 297.925  1.00 47.19     0.002 A 
HETATM   10  C16 T2Q H 403     218.015 266.068 297.537  1.00 47.19    -0.002 A 
HETATM   11  C17 T2Q H 403     218.732 267.218 297.814  1.00 47.19     0.001 A 
HETATM   12  C18 T2Q H 403     219.941 267.130 298.476  1.00 47.19     0.017 A 
HETATM   13  C2  T2Q H 403     220.435 265.902 298.867  1.00 47.19     0.056 A 
HETATM   14  C20 T2Q H 403     219.716 264.755 298.588  1.00 47.19     0.015 A 
BRANCH  13  15
HETATM   15  N1  T2Q H 403     221.707 265.814 299.556  1.00 47.19    -0.348 N 
HETATM   16  C21 T2Q H 403     222.098 264.595 300.208  1.00 47.19     0.102 C 
HETATM   17  C22 T2Q H 403     223.089 264.925 301.292  1.00 47.19     0.040 C 
HETATM   18  C23 T2Q H 403     224.376 265.447 300.683  1.00 47.19     0.112 C 
HETATM   19  C24 T2Q H 403     224.078 266.531 299.634  1.00 47.19     0.040 C 
HETATM   20  C25 T2Q H 403     222.599 266.960 299.602  1.00 47.19     0.102 C 
BRANCH  18  21
HETATM   21  S1  T2Q H 403     225.400 266.159 301.991  1.00 47.19     0.170 S 
HETATM   22  O3' T2Q H 403     225.836 267.512 301.645  1.00 47.19    -0.226 OA
HETATM   23  C26 T2Q H 403     224.489 266.131 303.558  1.00 47.19     0.140 C 
HETATM   24  OP1 T2Q H 403     226.681 265.462 302.097  1.00 47.19    -0.226 OA
ENDBRANCH  18  21
ENDBRANCH  13  15
ENDBRANCH   8   9
ENDBRANCH   5   8
BRANCH   3  25
HETATM   25  CAA T2Q H 403     220.019 259.270 298.814  1.00 47.19     0.210 A 
HETATM   26  N6  T2Q H 403     219.802 258.003 299.166  1.00 47.19    -0.199 NA
HETATM   27  C7  T2Q H 403     220.787 257.237 298.609  1.00 47.19     0.191 A 
HETATM   28  NAA T2Q H 403     221.602 258.038 297.919  1.00 47.19    -0.105 NA
HETATM   29  OP3 T2Q H 403     221.133 259.311 298.039  1.00 47.19    -0.190 OA
BRANCH  27  30
HETATM   30  CAB T2Q H 403     220.912 255.726 298.768  1.00 47.19     0.038 A 
HETATM   31  C1  T2Q H 403     220.046 255.027 299.589  1.00 47.19     0.005 A 
HETATM   32  C6  T2Q H 403     220.176 253.654 299.713  1.00 47.19     0.025 A 
HETATM   33  C5' T2Q H 403     221.171 252.984 299.020  1.00 47.19     0.102 A 
HETATM   34  C4' T2Q H 403     222.033 253.689 298.196  1.00 47.19     0.025 A 
HETATM   35  C3  T2Q H 403     221.903 255.061 298.071  1.00 47.19     0.005 A 
BRANCH  33  36
HETATM   36  O5' T2Q H 403     221.305 251.596 299.137  1.00 47.19    -0.253 OA
BRANCH  36  37
HETATM   37  C27 T2Q H 403     222.365 251.158 299.935  1.00 47.19     0.530 C 
HETATM   38  F1  T2Q H 403     221.995 250.012 300.577  1.00 47.19    -0.144 F 
HETATM   39  F2  T2Q H 403     222.665 252.116 300.858  1.00 47.19    -0.144 F 
HETATM   40  F3  T2Q H 403     223.457 250.906 299.157  1.00 47.19    -0.144 F 
ENDBRANCH  36  37
ENDBRANCH  33  36
ENDBRANCH  27  30
ENDBRANCH   3  25
TORSDOF 8
ENDMDL
MODEL 10
REMARK VINA RESULT:     -10.7      1.677      2.282
REMARK  8 active torsions:
REMARK  status: ('A' for Active; 'I' for Inactive)
REMARK    1  A    between atoms: CAA_1  and  C5_17 
REMARK    2  A    between atoms: CAB_2  and  C7_20 
REMARK    3  A    between atoms: C5'_4  and  O5'_5 
REMARK    4  A    between atoms: O5'_5  and  C27_35 
REMARK    5  A    between atoms: C2'_8  and  C1'_9 
REMARK    6  A    between atoms: C1'_9  and  N9_22 
REMARK    7  A    between atoms: N1_11  and  C2_13 
REMARK    8  A    between atoms: S1_12  and  C23_31 
ROOT
HETATM    1  C4  T2Q H 403     220.896 246.735 298.891  1.00 47.19     0.081 A 
HETATM    2  O4  T2Q H 403     220.227 249.019 296.015  1.00 47.19    -0.171 OA
HETATM    3  C5  T2Q H 403     221.601 245.680 298.249  1.00 47.19     0.061 A 
HETATM    4  C8  T2Q H 403     220.676 247.922 296.756  1.00 47.19     0.195 A 
HETATM    5  N9  T2Q H 403     220.433 247.858 298.125  1.00 47.19    -0.301 N 
HETATM    6  C12 T2Q H 403     221.410 246.825 296.091  1.00 47.19     0.046 A 
HETATM    7  C13 T2Q H 403     221.858 245.738 296.837  1.00 47.19     0.009 A 
ENDROOT
BRANCH   5   8
HETATM    8  C1' T2Q H 403     219.720 248.919 298.796  1.00 47.19     0.135 C 
BRANCH   8   9
HETATM    9  C2' T2Q H 403     220.716 249.952 299.306  1.00 47.19     0.002 A 
HETATM   10  C16 T2Q H 403     221.838 249.546 299.998  1.00 47.19    -0.002 A 
HETATM   11  C17 T2Q H 403     222.740 250.487 300.459  1.00 47.19     0.001 A 
HETATM   12  C18 T2Q H 403     222.512 251.829 300.226  1.00 47.19     0.017 A 
HETATM   13  C2  T2Q H 403     221.391 252.236 299.532  1.00 47.19     0.056 A 
HETATM   14  C20 T2Q H 403     220.491 251.293 299.072  1.00 47.19     0.015 A 
BRANCH  13  15
HETATM   15  N1  T2Q H 403     221.152 253.645 299.294  1.00 47.19    -0.348 N 
HETATM   16  C21 T2Q H 403     220.213 254.371 300.104  1.00 47.19     0.102 C 
HETATM   17  C22 T2Q H 403     219.719 255.559 299.322  1.00 47.19     0.040 C 
HETATM   18  C23 T2Q H 403     220.850 256.544 299.097  1.00 47.19     0.112 C 
HETATM   19  C24 T2Q H 403     222.104 255.819 298.579  1.00 47.19     0.040 C 
HETATM   20  C25 T2Q H 403     221.853 254.340 298.228  1.00 47.19     0.102 C 
BRANCH  18  21
HETATM   21  S1  T2Q H 403     220.330 257.768 297.874  1.00 47.19     0.170 S 
HETATM   22  O3' T2Q H 403     219.455 257.170 296.866  1.00 47.19    -0.226 OA
HETATM   23  C26 T2Q H 403     219.530 259.162 298.712  1.00 47.19     0.140 C 
HETATM   24  OP1 T2Q H 403     221.457 258.205 297.052  1.00 47.19    -0.226 OA
ENDBRANCH  18  21
ENDBRANCH  13  15
ENDBRANCH   8   9
ENDBRANCH   5   8
BRANCH   3  25
HETATM   25  CAA T2Q H 403     222.080 244.499 299.080  1.00 47.19     0.210 A 
HETATM   26  N6  T2Q H 403     223.073 243.677 298.741  1.00 47.19    -0.199 NA
HETATM   27  C7  T2Q H 403     223.207 242.747 299.734  1.00 47.19     0.191 A 
HETATM   28  NAA T2Q H 403     222.296 243.006 300.675  1.00 47.19    -0.105 NA
HETATM   29  OP3 T2Q H 403     221.586 244.098 300.279  1.00 47.19    -0.190 OA
BRANCH  27  30
HETATM   30  CAB T2Q H 403     224.229 241.617 299.739  1.00 47.19     0.038 A 
HETATM   31  C1  T2Q H 403     224.837 241.218 300.915  1.00 47.19     0.005 A 
HETATM   32  C6  T2Q H 403     225.759 240.185 300.896  1.00 47.19     0.025 A 
HETATM   33  C5' T2Q H 403     226.073 239.555 299.702  1.00 47.19     0.102 A 
HETATM   34  C4' T2Q H 403     225.458 239.956 298.528  1.00 47.19     0.025 A 
HETATM   35  C3  T2Q H 403     224.536 240.988 298.547  1.00 47.19     0.005 A 
BRANCH  33  36
HETATM   36  O5' T2Q H 403     227.000 238.508 299.676  1.00 47.19    -0.253 OA
BRANCH  36  37
HETATM   37  C27 T2Q H 403     226.521 237.270 300.113  1.00 47.19     0.530 C 
HETATM   38  F1  T2Q H 403     226.953 237.050 301.389  1.00 47.19    -0.144 F 
HETATM   39  F2  T2Q H 403     226.998 236.285 299.299  1.00 47.19    -0.144 F 
HETATM   40  F3  T2Q H 403     225.157 237.267 300.093  1.00 47.19    -0.144 F 
ENDBRANCH  36  37
ENDBRANCH  33  36
ENDBRANCH  27  30
ENDBRANCH   3  25
TORSDOF 8
ENDMDL
