MODEL 1
REMARK VINA RESULT:      -9.1      0.000      0.000
REMARK  12 active torsions:
REMARK  status: ('A' for Active; 'I' for Inactive)
REMARK    1  A    between atoms: O_2  and  C_3 
REMARK    2  A    between atoms: C_4  and  O_5 
REMARK    3  A    between atoms: C_8  and  C_9 
REMARK    4  A    between atoms: C_9  and  C_10 
REMARK    5  A    between atoms: C_11  and  C_13 
REMARK    6  A    between atoms: C_13  and  C_14 
REMARK    7  A    between atoms: C_15  and  C_16 
REMARK    8  A    between atoms: C_18  and  C_19 
REMARK    9  A    between atoms: C_19  and  C_20 
REMARK   10  A    between atoms: C_20  and  O_21 
REMARK   11  A    between atoms: C_20  and  C_22 
REMARK   12  A    between atoms: C_28  and  O_29 
ROOT
ATOM      1  C           0      74.962  -1.115  29.048  0.00  0.00    -0.018 C 
ATOM      2  C           0      75.622  -0.964  27.926  0.00  0.00    -0.084 C 
ATOM      3  C           0      76.578  -2.033  27.465  0.00  0.00     0.043 C 
ENDROOT
BRANCH   2   4
ATOM      4  C           0      75.424   0.279  27.097  0.00  0.00     0.060 C 
BRANCH   4   5
ATOM      5  C           0      75.375  -0.093  25.637  0.00  0.00    -0.022 C 
ATOM      6  C           0      74.211  -0.368  25.061  0.00  0.00     0.003 C 
BRANCH   6   7
ATOM      7  C           0      74.162  -0.731  23.636  0.00  0.00    -0.066 C 
ATOM      8  C           0      74.599  -2.104  23.194  0.00  0.00     0.048 C 
ATOM      9  C           0      73.734   0.151  22.740  0.00  0.00    -0.013 C 
BRANCH   9  10
ATOM     10  C           0      73.512  -0.275  21.311  0.00  0.00     0.037 C 
ATOM     11  C           0      72.011  -0.399  21.043  0.00  0.00     0.017 C 
BRANCH  10  12
ATOM     12  C           0      74.113   0.771  20.369  0.00  0.00     0.153 C 
BRANCH  12  13
ATOM     13  O           0      74.714   1.816  21.137  0.00  0.00    -0.391 OA
ATOM     14  H           0      75.573   1.485  21.434  0.00  0.00     0.210 HD
ENDBRANCH  12  13
BRANCH  12  15
ATOM     15  C           0      75.159   0.122  19.499  0.00  0.00    -0.059 C 
ATOM     16  C           0      76.055  -0.948  20.070  0.00  0.00     0.046 C 
ATOM     17  C           0      75.289   0.486  18.247  0.00  0.00    -0.026 C 
ATOM     18  C           0      76.335  -0.164  17.378  0.00  0.00     0.036 C 
ENDBRANCH  12  15
ENDBRANCH  10  12
ENDBRANCH   9  10
ENDBRANCH   6   7
ENDBRANCH   4   5
ENDBRANCH   2   4
BRANCH   1  19
ATOM     19  C           0      75.295  -2.260  29.969  0.00  0.00     0.087 C 
BRANCH  19  20
ATOM     20  C           0      74.253  -2.350  31.054  0.00  0.00     0.049 A 
ATOM     21  C           0      74.572  -2.949  32.255  0.00  0.00    -0.001 A 
ATOM     22  C           0      73.605  -3.030  33.254  0.00  0.00     0.111 A 
ATOM     23  C           0      75.952  -3.511  32.483  0.00  0.00     0.053 C 
ATOM     24  C           0      72.343  -2.497  32.997  0.00  0.00     0.155 A 
ATOM     25  C           0      72.098  -1.912  31.760  0.00  0.00     0.201 A 
ATOM     26  N           0      73.048  -1.853  30.842  0.00  0.00    -0.226 NA
BRANCH  22  27
ATOM     27  O           0      73.884  -3.614  34.448  0.00  0.00    -0.357 OA
ATOM     28  H           0      73.149  -4.209  34.647  0.00  0.00     0.217 HD
ENDBRANCH  22  27
BRANCH  24  29
ATOM     29  O           0      71.365  -2.552  33.942  0.00  0.00    -0.349 OA
ATOM     30  C           0      71.531  -1.404  34.777  0.00  0.00     0.210 C 
ENDBRANCH  24  29
BRANCH  25  31
ATOM     31  O           0      70.873  -1.389  31.495  0.00  0.00    -0.337 OA
ATOM     32  C           0      70.585  -1.683  30.127  0.00  0.00     0.211 C 
ENDBRANCH  25  31
ENDBRANCH  19  20
ENDBRANCH   1  19
TORSDOF 12
ENDMDL
MODEL 2
REMARK VINA RESULT:      -9.0      3.341     12.205
REMARK  12 active torsions:
REMARK  status: ('A' for Active; 'I' for Inactive)
REMARK    1  A    between atoms: O_2  and  C_3 
REMARK    2  A    between atoms: C_4  and  O_5 
REMARK    3  A    between atoms: C_8  and  C_9 
REMARK    4  A    between atoms: C_9  and  C_10 
REMARK    5  A    between atoms: C_11  and  C_13 
REMARK    6  A    between atoms: C_13  and  C_14 
REMARK    7  A    between atoms: C_15  and  C_16 
REMARK    8  A    between atoms: C_18  and  C_19 
REMARK    9  A    between atoms: C_19  and  C_20 
REMARK   10  A    between atoms: C_20  and  O_21 
REMARK   11  A    between atoms: C_20  and  C_22 
REMARK   12  A    between atoms: C_28  and  O_29 
ROOT
ATOM      1  C           0      74.616  -2.210  30.546  0.00  0.00    -0.018 C 
ATOM      2  C           0      74.659  -2.821  31.705  0.00  0.00    -0.084 C 
ATOM      3  C           0      75.983  -3.247  32.285  0.00  0.00     0.043 C 
ENDROOT
BRANCH   2   4
ATOM      4  C           0      73.382  -3.098  32.456  0.00  0.00     0.060 C 
BRANCH   4   5
ATOM      5  C           0      73.235  -2.104  33.580  0.00  0.00    -0.022 C 
ATOM      6  C           0      72.026  -1.719  33.971  0.00  0.00     0.003 C 
BRANCH   6   7
ATOM      7  C           0      71.881  -0.748  35.068  0.00  0.00    -0.066 C 
ATOM      8  C           0      72.290   0.688  34.860  0.00  0.00     0.048 C 
ATOM      9  C           0      71.393  -1.138  36.240  0.00  0.00    -0.013 C 
BRANCH   9  10
ATOM     10  C           0      71.075  -0.114  37.301  0.00  0.00     0.037 C 
ATOM     11  C           0      69.596   0.268  37.213  0.00  0.00     0.017 C 
BRANCH  10  12
ATOM     12  C           0      71.368  -0.706  38.682  0.00  0.00     0.153 C 
BRANCH  12  13
ATOM     13  O           0      72.494  -1.581  38.597  0.00  0.00    -0.391 OA
ATOM     14  H           0      73.264  -1.028  38.409  0.00  0.00     0.210 HD
ENDBRANCH  12  13
BRANCH  12  15
ATOM     15  C           0      71.670   0.408  39.651  0.00  0.00    -0.059 C 
ATOM     16  C           0      72.306   1.682  39.159  0.00  0.00     0.046 C 
ATOM     17  C           0      71.379   0.269  40.921  0.00  0.00    -0.026 C 
ATOM     18  C           0      71.681   1.383  41.889  0.00  0.00     0.036 C 
ENDBRANCH  12  15
ENDBRANCH  10  12
ENDBRANCH   9  10
ENDBRANCH   6   7
ENDBRANCH   4   5
ENDBRANCH   2   4
BRANCH   1  19
ATOM     19  C           0      75.864  -2.102  29.707  0.00  0.00     0.087 C 
BRANCH  19  20
ATOM     20  C           0      75.487  -1.734  28.295  0.00  0.00     0.049 A 
ATOM     21  C           0      76.375  -1.983  27.268  0.00  0.00    -0.001 A 
ATOM     22  C           0      76.021  -1.641  25.965  0.00  0.00     0.111 A 
ATOM     23  C           0      77.711  -2.616  27.554  0.00  0.00     0.053 C 
ATOM     24  C           0      74.774  -1.057  25.749  0.00  0.00     0.155 A 
ATOM     25  C           0      73.937  -0.834  26.837  0.00  0.00     0.201 A 
ATOM     26  N           0      74.312  -1.180  28.058  0.00  0.00    -0.226 NA
BRANCH  22  27
ATOM     27  O           0      76.870  -1.870  24.930  0.00  0.00    -0.357 OA
ATOM     28  H           0      77.315  -1.033  24.742  0.00  0.00     0.217 HD
ENDBRANCH  22  27
BRANCH  24  29
ATOM     29  O           0      74.384  -0.705  24.494  0.00  0.00    -0.349 OA
ATOM     30  C           0      73.780  -1.861  23.909  0.00  0.00     0.210 C 
ENDBRANCH  24  29
BRANCH  25  31
ATOM     31  O           0      72.719  -0.266  26.643  0.00  0.00    -0.337 OA
ATOM     32  C           0      71.930  -0.580  27.792  0.00  0.00     0.211 C 
ENDBRANCH  25  31
ENDBRANCH  19  20
ENDBRANCH   1  19
TORSDOF 12
ENDMDL
MODEL 3
REMARK VINA RESULT:      -8.9      1.655      2.196
REMARK  12 active torsions:
REMARK  status: ('A' for Active; 'I' for Inactive)
REMARK    1  A    between atoms: O_2  and  C_3 
REMARK    2  A    between atoms: C_4  and  O_5 
REMARK    3  A    between atoms: C_8  and  C_9 
REMARK    4  A    between atoms: C_9  and  C_10 
REMARK    5  A    between atoms: C_11  and  C_13 
REMARK    6  A    between atoms: C_13  and  C_14 
REMARK    7  A    between atoms: C_15  and  C_16 
REMARK    8  A    between atoms: C_18  and  C_19 
REMARK    9  A    between atoms: C_19  and  C_20 
REMARK   10  A    between atoms: C_20  and  O_21 
REMARK   11  A    between atoms: C_20  and  C_22 
REMARK   12  A    between atoms: C_28  and  O_29 
ROOT
ATOM      1  C           0      74.937  -1.106  28.949  0.00  0.00    -0.018 C 
ATOM      2  C           0      75.596  -0.961  27.825  0.00  0.00    -0.084 C 
ATOM      3  C           0      76.595  -2.005  27.398  0.00  0.00     0.043 C 
ENDROOT
BRANCH   2   4
ATOM      4  C           0      75.356   0.250  26.962  0.00  0.00     0.060 C 
BRANCH   4   5
ATOM      5  C           0      74.587  -0.156  25.730  0.00  0.00    -0.022 C 
ATOM      6  C           0      75.076   0.111  24.524  0.00  0.00     0.003 C 
BRANCH   6   7
ATOM      7  C           0      74.326  -0.285  23.322  0.00  0.00    -0.066 C 
ATOM      8  C           0      72.825  -0.408  23.378  0.00  0.00     0.048 C 
ATOM      9  C           0      74.972  -0.534  22.188  0.00  0.00    -0.013 C 
BRANCH   9  10
ATOM     10  C           0      74.198  -0.762  20.915  0.00  0.00     0.037 C 
ATOM     11  C           0      74.408   0.424  19.971  0.00  0.00     0.017 C 
BRANCH  10  12
ATOM     12  C           0      74.692  -2.044  20.241  0.00  0.00     0.153 C 
BRANCH  12  13
ATOM     13  O           0      75.892  -2.486  20.879  0.00  0.00    -0.391 OA
ATOM     14  H           0      76.365  -3.032  20.236  0.00  0.00     0.210 HD
ENDBRANCH  12  13
BRANCH  12  15
ATOM     15  C           0      73.637  -3.113  20.359  0.00  0.00    -0.059 C 
ATOM     16  C           0      73.168  -3.560  21.720  0.00  0.00     0.046 C 
ATOM     17  C           0      73.126  -3.653  19.281  0.00  0.00    -0.026 C 
ATOM     18  C           0      72.071  -4.722  19.400  0.00  0.00     0.036 C 
ENDBRANCH  12  15
ENDBRANCH  10  12
ENDBRANCH   9  10
ENDBRANCH   6   7
ENDBRANCH   4   5
ENDBRANCH   2   4
BRANCH   1  19
ATOM     19  C           0      75.310  -2.211  29.903  0.00  0.00     0.087 C 
BRANCH  19  20
ATOM     20  C           0      74.261  -2.319  30.980  0.00  0.00     0.049 A 
ATOM     21  C           0      74.577  -2.926  32.178  0.00  0.00    -0.001 A 
ATOM     22  C           0      73.603  -3.022  33.169  0.00  0.00     0.111 A 
ATOM     23  C           0      75.959  -3.478  32.411  0.00  0.00     0.053 C 
ATOM     24  C           0      72.339  -2.497  32.908  0.00  0.00     0.155 A 
ATOM     25  C           0      72.097  -1.904  31.674  0.00  0.00     0.201 A 
ATOM     26  N           0      73.054  -1.829  30.763  0.00  0.00    -0.226 NA
BRANCH  22  27
ATOM     27  O           0      73.878  -3.614  34.360  0.00  0.00    -0.357 OA
ATOM     28  H           0      74.494  -3.033  34.826  0.00  0.00     0.217 HD
ENDBRANCH  22  27
BRANCH  24  29
ATOM     29  O           0      71.354  -2.567  33.846  0.00  0.00    -0.349 OA
ATOM     30  C           0      71.513  -1.432  34.698  0.00  0.00     0.210 C 
ENDBRANCH  24  29
BRANCH  25  31
ATOM     31  O           0      70.871  -1.388  31.405  0.00  0.00    -0.337 OA
ATOM     32  C           0      70.610  -1.642  30.023  0.00  0.00     0.211 C 
ENDBRANCH  25  31
ENDBRANCH  19  20
ENDBRANCH   1  19
TORSDOF 12
ENDMDL
MODEL 4
REMARK VINA RESULT:      -8.9      8.357     11.754
REMARK  12 active torsions:
REMARK  status: ('A' for Active; 'I' for Inactive)
REMARK    1  A    between atoms: O_2  and  C_3 
REMARK    2  A    between atoms: C_4  and  O_5 
REMARK    3  A    between atoms: C_8  and  C_9 
REMARK    4  A    between atoms: C_9  and  C_10 
REMARK    5  A    between atoms: C_11  and  C_13 
REMARK    6  A    between atoms: C_13  and  C_14 
REMARK    7  A    between atoms: C_15  and  C_16 
REMARK    8  A    between atoms: C_18  and  C_19 
REMARK    9  A    between atoms: C_19  and  C_20 
REMARK   10  A    between atoms: C_20  and  O_21 
REMARK   11  A    between atoms: C_20  and  C_22 
REMARK   12  A    between atoms: C_28  and  O_29 
ROOT
ATOM      1  C           0      73.284  -5.157  20.896  0.00  0.00    -0.018 C 
ATOM      2  C           0      73.218  -5.806  19.760  0.00  0.00    -0.084 C 
ATOM      3  C           0      72.808  -5.086  18.502  0.00  0.00     0.043 C 
ENDROOT
BRANCH   2   4
ATOM      4  C           0      73.553  -7.275  19.712  0.00  0.00     0.060 C 
BRANCH   4   5
ATOM      5  C           0      73.790  -7.690  18.282  0.00  0.00    -0.022 C 
ATOM      6  C           0      73.624  -8.957  17.922  0.00  0.00     0.003 C 
BRANCH   6   7
ATOM      7  C           0      73.855  -9.362  16.527  0.00  0.00    -0.066 C 
ATOM      8  C           0      73.637  -8.374  15.410  0.00  0.00     0.048 C 
ATOM      9  C           0      74.255 -10.599  16.251  0.00  0.00    -0.013 C 
BRANCH   9  10
ATOM     10  C           0      74.666 -10.962  14.847  0.00  0.00     0.037 C 
ATOM     11  C           0      76.117 -11.449  14.850  0.00  0.00     0.017 C 
BRANCH  10  12
ATOM     12  C           0      73.756 -12.075  14.323  0.00  0.00     0.153 C 
BRANCH  12  13
ATOM     13  O           0      72.397 -11.636  14.360  0.00  0.00    -0.391 OA
ATOM     14  H           0      71.869 -12.389  14.659  0.00  0.00     0.210 HD
ENDBRANCH  12  13
BRANCH  12  15
ATOM     15  C           0      74.138 -12.408  12.903  0.00  0.00    -0.059 C 
ATOM     16  C           0      74.243 -11.312  11.875  0.00  0.00     0.046 C 
ATOM     17  C           0      74.379 -13.650  12.563  0.00  0.00    -0.026 C 
ATOM     18  C           0      74.760 -13.983  11.144  0.00  0.00     0.036 C 
ENDBRANCH  12  15
ENDBRANCH  10  12
ENDBRANCH   9  10
ENDBRANCH   6   7
ENDBRANCH   4   5
ENDBRANCH   2   4
BRANCH   1  19
ATOM     19  C           0      72.770  -3.743  20.986  0.00  0.00     0.087 C 
BRANCH  19  20
ATOM     20  C           0      73.833  -2.859  21.585  0.00  0.00     0.049 A 
ATOM     21  C           0      74.621  -2.087  20.757  0.00  0.00    -0.001 A 
ATOM     22  C           0      75.602  -1.272  21.317  0.00  0.00     0.111 A 
ATOM     23  C           0      74.422  -2.125  19.264  0.00  0.00     0.053 C 
ATOM     24  C           0      75.750  -1.271  22.703  0.00  0.00     0.155 A 
ATOM     25  C           0      74.920  -2.081  23.469  0.00  0.00     0.201 A 
ATOM     26  N           0      73.996  -2.835  22.896  0.00  0.00    -0.226 NA
BRANCH  22  27
ATOM     27  O           0      76.397  -0.499  20.532  0.00  0.00    -0.357 OA
ATOM     28  H           0      75.852   0.237  20.221  0.00  0.00     0.217 HD
ENDBRANCH  22  27
BRANCH  24  29
ATOM     29  O           0      76.695  -0.491  23.297  0.00  0.00    -0.349 OA
ATOM     30  C           0      76.120   0.807  23.456  0.00  0.00     0.210 C 
ENDBRANCH  24  29
BRANCH  25  31
ATOM     31  O           0      75.051  -2.090  24.821  0.00  0.00    -0.337 OA
ATOM     32  C           0      73.867  -1.493  25.355  0.00  0.00     0.211 C 
ENDBRANCH  25  31
ENDBRANCH  19  20
ENDBRANCH   1  19
TORSDOF 12
ENDMDL
MODEL 5
REMARK VINA RESULT:      -8.9      7.435     10.624
REMARK  12 active torsions:
REMARK  status: ('A' for Active; 'I' for Inactive)
REMARK    1  A    between atoms: O_2  and  C_3 
REMARK    2  A    between atoms: C_4  and  O_5 
REMARK    3  A    between atoms: C_8  and  C_9 
REMARK    4  A    between atoms: C_9  and  C_10 
REMARK    5  A    between atoms: C_11  and  C_13 
REMARK    6  A    between atoms: C_13  and  C_14 
REMARK    7  A    between atoms: C_15  and  C_16 
REMARK    8  A    between atoms: C_18  and  C_19 
REMARK    9  A    between atoms: C_19  and  C_20 
REMARK   10  A    between atoms: C_20  and  O_21 
REMARK   11  A    between atoms: C_20  and  C_22 
REMARK   12  A    between atoms: C_28  and  O_29 
ROOT
ATOM      1  C           0      73.211  -4.087  21.534  0.00  0.00    -0.018 C 
ATOM      2  C           0      72.829  -4.836  20.530  0.00  0.00    -0.084 C 
ATOM      3  C           0      72.123  -4.216  19.352  0.00  0.00     0.043 C 
ENDROOT
BRANCH   2   4
ATOM      4  C           0      73.094  -6.320  20.554  0.00  0.00     0.060 C 
BRANCH   4   5
ATOM      5  C           0      73.348  -6.807  19.150  0.00  0.00    -0.022 C 
ATOM      6  C           0      73.521  -8.104  18.918  0.00  0.00     0.003 C 
BRANCH   6   7
ATOM      7  C           0      73.769  -8.580  17.549  0.00  0.00    -0.066 C 
ATOM      8  C           0      73.638  -7.630  16.386  0.00  0.00     0.048 C 
ATOM      9  C           0      74.109  -9.846  17.337  0.00  0.00    -0.013 C 
BRANCH   9  10
ATOM     10  C           0      74.539 -10.291  15.962  0.00  0.00     0.037 C 
ATOM     11  C           0      75.967 -10.836  16.026  0.00  0.00     0.017 C 
BRANCH  10  12
ATOM     12  C           0      73.596 -11.388  15.464  0.00  0.00     0.153 C 
BRANCH  12  13
ATOM     13  O           0      72.392 -11.368  16.233  0.00  0.00    -0.391 OA
ATOM     14  H           0      71.669 -11.194  15.615  0.00  0.00     0.210 HD
ENDBRANCH  12  13
BRANCH  12  15
ATOM     15  C           0      73.269 -11.148  14.012  0.00  0.00    -0.059 C 
ATOM     16  C           0      72.553 -12.210  13.217  0.00  0.00     0.046 C 
ATOM     17  C           0      73.605 -10.018  13.442  0.00  0.00    -0.026 C 
ATOM     18  C           0      73.278  -9.779  11.991  0.00  0.00     0.036 C 
ENDBRANCH  12  15
ENDBRANCH  10  12
ENDBRANCH   9  10
ENDBRANCH   6   7
ENDBRANCH   4   5
ENDBRANCH   2   4
BRANCH   1  19
ATOM     19  C           0      72.783  -2.644  21.602  0.00  0.00     0.087 C 
BRANCH  19  20
ATOM     20  C           0      73.785  -1.860  22.411  0.00  0.00     0.049 A 
ATOM     21  C           0      74.232  -0.642  21.944  0.00  0.00    -0.001 A 
ATOM     22  C           0      75.158   0.076  22.696  0.00  0.00     0.111 A 
ATOM     23  C           0      73.726  -0.096  20.634  0.00  0.00     0.053 C 
ATOM     24  C           0      75.599  -0.469  23.900  0.00  0.00     0.155 A 
ATOM     25  C           0      75.104  -1.704  24.301  0.00  0.00     0.201 A 
ATOM     26  N           0      74.220  -2.350  23.558  0.00  0.00    -0.226 NA
BRANCH  22  27
ATOM     27  O           0      75.622   1.279  22.265  0.00  0.00    -0.357 OA
ATOM     28  H           0      75.047   1.954  22.650  0.00  0.00     0.217 HD
ENDBRANCH  22  27
BRANCH  24  29
ATOM     29  O           0      76.503   0.196  24.670  0.00  0.00    -0.349 OA
ATOM     30  C           0      77.794  -0.308  24.322  0.00  0.00     0.210 C 
ENDBRANCH  24  29
BRANCH  25  31
ATOM     31  O           0      75.523  -2.249  25.472  0.00  0.00    -0.337 OA
ATOM     32  C           0      74.461  -2.073  26.413  0.00  0.00     0.211 C 
ENDBRANCH  25  31
ENDBRANCH  19  20
ENDBRANCH   1  19
TORSDOF 12
ENDMDL
MODEL 6
REMARK VINA RESULT:      -8.9      2.591      4.824
REMARK  12 active torsions:
REMARK  status: ('A' for Active; 'I' for Inactive)
REMARK    1  A    between atoms: O_2  and  C_3 
REMARK    2  A    between atoms: C_4  and  O_5 
REMARK    3  A    between atoms: C_8  and  C_9 
REMARK    4  A    between atoms: C_9  and  C_10 
REMARK    5  A    between atoms: C_11  and  C_13 
REMARK    6  A    between atoms: C_13  and  C_14 
REMARK    7  A    between atoms: C_15  and  C_16 
REMARK    8  A    between atoms: C_18  and  C_19 
REMARK    9  A    between atoms: C_19  and  C_20 
REMARK   10  A    between atoms: C_20  and  O_21 
REMARK   11  A    between atoms: C_20  and  C_22 
REMARK   12  A    between atoms: C_28  and  O_29 
ROOT
ATOM      1  C           0      73.178  -1.718  32.238  0.00  0.00    -0.018 C 
ATOM      2  C           0      73.316  -1.967  30.959  0.00  0.00    -0.084 C 
ATOM      3  C           0      72.152  -1.766  30.023  0.00  0.00     0.043 C 
ENDROOT
BRANCH   2   4
ATOM      4  C           0      74.638  -2.454  30.425  0.00  0.00     0.060 C 
BRANCH   4   5
ATOM      5  C           0      74.791  -2.018  28.990  0.00  0.00    -0.022 C 
ATOM      6  C           0      75.650  -1.054  28.677  0.00  0.00     0.003 C 
BRANCH   6   7
ATOM      7  C           0      75.800  -0.629  27.277  0.00  0.00    -0.066 C 
ATOM      8  C           0      75.380   0.759  26.863  0.00  0.00     0.048 C 
ATOM      9  C           0      76.304  -1.466  26.378  0.00  0.00    -0.013 C 
BRANCH   9  10
ATOM     10  C           0      76.627  -0.976  24.989  0.00  0.00     0.037 C 
ATOM     11  C           0      78.069  -1.346  24.640  0.00  0.00     0.017 C 
BRANCH  10  12
ATOM     12  C           0      75.675  -1.630  23.985  0.00  0.00     0.153 C 
BRANCH  12  13
ATOM     13  O           0      74.787  -2.513  24.674  0.00  0.00    -0.391 OA
ATOM     14  H           0      74.097  -2.762  24.044  0.00  0.00     0.210 HD
ENDBRANCH  12  13
BRANCH  12  15
ATOM     15  C           0      74.875  -0.563  23.282  0.00  0.00    -0.059 C 
ATOM     16  C           0      73.452  -0.292  23.698  0.00  0.00     0.046 C 
ATOM     17  C           0      75.417   0.130  22.311  0.00  0.00    -0.026 C 
ATOM     18  C           0      74.618   1.197  21.609  0.00  0.00     0.036 C 
ENDBRANCH  12  15
ENDBRANCH  10  12
ENDBRANCH   9  10
ENDBRANCH   6   7
ENDBRANCH   4   5
ENDBRANCH   2   4
BRANCH   1  19
ATOM     19  C           0      71.814  -1.415  32.804  0.00  0.00     0.087 C 
BRANCH  19  20
ATOM     20  C           0      71.889  -1.392  34.309  0.00  0.00     0.049 A 
ATOM     21  C           0      71.945  -0.182  34.968  0.00  0.00    -0.001 A 
ATOM     22  C           0      72.014  -0.167  36.359  0.00  0.00     0.111 A 
ATOM     23  C           0      71.933   1.109  34.192  0.00  0.00     0.053 C 
ATOM     24  C           0      72.024  -1.386  37.034  0.00  0.00     0.155 A 
ATOM     25  C           0      71.969  -2.564  36.298  0.00  0.00     0.201 A 
ATOM     26  N           0      71.899  -2.531  34.977  0.00  0.00    -0.226 NA
BRANCH  22  27
ATOM     27  O           0      72.072   1.006  37.041  0.00  0.00    -0.357 OA
ATOM     28  H           0      72.071   0.784  37.982  0.00  0.00     0.217 HD
ENDBRANCH  22  27
BRANCH  24  29
ATOM     29  O           0      72.090  -1.423  38.393  0.00  0.00    -0.349 OA
ATOM     30  C           0      70.745  -1.459  38.873  0.00  0.00     0.210 C 
ENDBRANCH  24  29
BRANCH  25  31
ATOM     31  O           0      71.977  -3.760  36.941  0.00  0.00    -0.337 OA
ATOM     32  C           0      71.208  -4.663  36.144  0.00  0.00     0.211 C 
ENDBRANCH  25  31
ENDBRANCH  19  20
ENDBRANCH   1  19
TORSDOF 12
ENDMDL
MODEL 7
REMARK VINA RESULT:      -8.9      3.399     12.394
REMARK  12 active torsions:
REMARK  status: ('A' for Active; 'I' for Inactive)
REMARK    1  A    between atoms: O_2  and  C_3 
REMARK    2  A    between atoms: C_4  and  O_5 
REMARK    3  A    between atoms: C_8  and  C_9 
REMARK    4  A    between atoms: C_9  and  C_10 
REMARK    5  A    between atoms: C_11  and  C_13 
REMARK    6  A    between atoms: C_13  and  C_14 
REMARK    7  A    between atoms: C_15  and  C_16 
REMARK    8  A    between atoms: C_18  and  C_19 
REMARK    9  A    between atoms: C_19  and  C_20 
REMARK   10  A    between atoms: C_20  and  O_21 
REMARK   11  A    between atoms: C_20  and  C_22 
REMARK   12  A    between atoms: C_28  and  O_29 
ROOT
ATOM      1  C           0      73.906  -1.615  30.469  0.00  0.00    -0.018 C 
ATOM      2  C           0      73.508  -2.201  31.571  0.00  0.00    -0.084 C 
ATOM      3  C           0      74.438  -3.130  32.308  0.00  0.00     0.043 C 
ENDROOT
BRANCH   2   4
ATOM      4  C           0      72.121  -1.947  32.101  0.00  0.00     0.060 C 
BRANCH   4   5
ATOM      5  C           0      72.195  -1.632  33.573  0.00  0.00    -0.022 C 
ATOM      6  C           0      71.249  -2.072  34.395  0.00  0.00     0.003 C 
BRANCH   6   7
ATOM      7  C           0      71.322  -1.765  35.832  0.00  0.00    -0.066 C 
ATOM      8  C           0      72.013  -2.720  36.772  0.00  0.00     0.048 C 
ATOM      9  C           0      70.776  -0.649  36.302  0.00  0.00    -0.013 C 
BRANCH   9  10
ATOM     10  C           0      71.005  -0.244  37.736  0.00  0.00     0.037 C 
ATOM     11  C           0      71.913   0.987  37.780  0.00  0.00     0.017 C 
BRANCH  10  12
ATOM     12  C           0      69.663   0.088  38.391  0.00  0.00     0.153 C 
BRANCH  12  13
ATOM     13  O           0      68.652   0.185  37.385  0.00  0.00    -0.391 OA
ATOM     14  H           0      67.801   0.182  37.844  0.00  0.00     0.210 HD
ENDBRANCH  12  13
BRANCH  12  15
ATOM     15  C           0      69.297  -1.000  39.368  0.00  0.00    -0.059 C 
ATOM     16  C           0      67.867  -1.463  39.476  0.00  0.00     0.046 C 
ATOM     17  C           0      70.221  -1.543  40.121  0.00  0.00    -0.026 C 
ATOM     18  C           0      69.854  -2.631  41.097  0.00  0.00     0.036 C 
ENDBRANCH  12  15
ENDBRANCH  10  12
ENDBRANCH   9  10
ENDBRANCH   6   7
ENDBRANCH   4   5
ENDBRANCH   2   4
BRANCH   1  19
ATOM     19  C           0      75.215  -2.011  29.835  0.00  0.00     0.087 C 
BRANCH  19  20
ATOM     20  C           0      75.150  -1.760  28.351  0.00  0.00     0.049 A 
ATOM     21  C           0      76.249  -2.038  27.565  0.00  0.00    -0.001 A 
ATOM     22  C           0      76.182  -1.804  26.194  0.00  0.00     0.111 A 
ATOM     23  C           0      77.507  -2.589  28.185  0.00  0.00     0.053 C 
ATOM     24  C           0      74.998  -1.294  25.666  0.00  0.00     0.155 A 
ATOM     25  C           0      73.935  -1.035  26.524  0.00  0.00     0.201 A 
ATOM     26  N           0      74.040  -1.278  27.821  0.00  0.00    -0.226 NA
BRANCH  22  27
ATOM     27  O           0      77.246  -2.066  25.391  0.00  0.00    -0.357 OA
ATOM     28  H           0      76.987  -2.795  24.811  0.00  0.00     0.217 HD
ENDBRANCH  22  27
BRANCH  24  29
ATOM     29  O           0      74.885  -1.049  24.332  0.00  0.00    -0.349 OA
ATOM     30  C           0      75.334   0.291  24.118  0.00  0.00     0.210 C 
ENDBRANCH  24  29
BRANCH  25  31
ATOM     31  O           0      72.774  -0.538  26.025  0.00  0.00    -0.337 OA
ATOM     32  C           0      71.924  -0.274  27.143  0.00  0.00     0.211 C 
ENDBRANCH  25  31
ENDBRANCH  19  20
ENDBRANCH   1  19
TORSDOF 12
ENDMDL
MODEL 8
REMARK VINA RESULT:      -8.8      2.514      4.248
REMARK  12 active torsions:
REMARK  status: ('A' for Active; 'I' for Inactive)
REMARK    1  A    between atoms: O_2  and  C_3 
REMARK    2  A    between atoms: C_4  and  O_5 
REMARK    3  A    between atoms: C_8  and  C_9 
REMARK    4  A    between atoms: C_9  and  C_10 
REMARK    5  A    between atoms: C_11  and  C_13 
REMARK    6  A    between atoms: C_13  and  C_14 
REMARK    7  A    between atoms: C_15  and  C_16 
REMARK    8  A    between atoms: C_18  and  C_19 
REMARK    9  A    between atoms: C_19  and  C_20 
REMARK   10  A    between atoms: C_20  and  O_21 
REMARK   11  A    between atoms: C_20  and  C_22 
REMARK   12  A    between atoms: C_28  and  O_29 
ROOT
ATOM      1  C           0      73.954  -1.737  31.859  0.00  0.00    -0.018 C 
ATOM      2  C           0      74.304  -2.323  30.741  0.00  0.00    -0.084 C 
ATOM      3  C           0      73.251  -2.895  29.827  0.00  0.00     0.043 C 
ENDROOT
BRANCH   2   4
ATOM      4  C           0      75.761  -2.426  30.369  0.00  0.00     0.060 C 
BRANCH   4   5
ATOM      5  C           0      75.939  -2.047  28.921  0.00  0.00    -0.022 C 
ATOM      6  C           0      75.600  -0.832  28.506  0.00  0.00     0.003 C 
BRANCH   6   7
ATOM      7  C           0      75.773  -0.462  27.093  0.00  0.00    -0.066 C 
ATOM      8  C           0      75.359   0.908  26.618  0.00  0.00     0.048 C 
ATOM      9  C           0      76.291  -1.334  26.236  0.00  0.00    -0.013 C 
BRANCH   9  10
ATOM     10  C           0      76.636  -0.898  24.835  0.00  0.00     0.037 C 
ATOM     11  C           0      78.078  -1.299  24.517  0.00  0.00     0.017 C 
BRANCH  10  12
ATOM     12  C           0      75.688  -1.577  23.843  0.00  0.00     0.153 C 
BRANCH  12  13
ATOM     13  O           0      74.841  -2.491  24.542  0.00  0.00    -0.391 OA
ATOM     14  H           0      73.952  -2.110  24.533  0.00  0.00     0.210 HD
ENDBRANCH  12  13
BRANCH  12  15
ATOM     15  C           0      74.844  -0.532  23.160  0.00  0.00    -0.059 C 
ATOM     16  C           0      73.370  -0.441  23.461  0.00  0.00     0.046 C 
ATOM     17  C           0      75.391   0.297  22.306  0.00  0.00    -0.026 C 
ATOM     18  C           0      74.546   1.342  21.623  0.00  0.00     0.036 C 
ENDBRANCH  12  15
ENDBRANCH  10  12
ENDBRANCH   9  10
ENDBRANCH   6   7
ENDBRANCH   4   5
ENDBRANCH   2   4
BRANCH   1  19
ATOM     19  C           0      72.522  -1.799  32.324  0.00  0.00     0.087 C 
BRANCH  19  20
ATOM     20  C           0      72.485  -1.838  33.830  0.00  0.00     0.049 A 
ATOM     21  C           0      72.831  -2.999  34.489  0.00  0.00    -0.001 A 
ATOM     22  C           0      72.795  -3.028  35.881  0.00  0.00     0.111 A 
ATOM     23  C           0      73.243  -4.222  33.712  0.00  0.00     0.053 C 
ATOM     24  C           0      72.408  -1.873  36.558  0.00  0.00     0.155 A 
ATOM     25  C           0      72.069  -0.743  35.822  0.00  0.00     0.201 A 
ATOM     26  N           0      72.123  -0.758  34.500  0.00  0.00    -0.226 NA
BRANCH  22  27
ATOM     27  O           0      73.129  -4.154  36.563  0.00  0.00    -0.357 OA
ATOM     28  H           0      74.064  -4.074  36.796  0.00  0.00     0.217 HD
ENDBRANCH  22  27
BRANCH  24  29
ATOM     29  O           0      72.357  -1.852  37.918  0.00  0.00    -0.349 OA
ATOM     30  C           0      71.047  -2.287  38.290  0.00  0.00     0.210 C 
ENDBRANCH  24  29
BRANCH  25  31
ATOM     31  O           0      71.689   0.390  36.466  0.00  0.00    -0.337 OA
ATOM     32  C           0      70.270   0.488  36.329  0.00  0.00     0.211 C 
ENDBRANCH  25  31
ENDBRANCH  19  20
ENDBRANCH   1  19
TORSDOF 12
ENDMDL
MODEL 9
REMARK VINA RESULT:      -8.7      4.722     13.601
REMARK  12 active torsions:
REMARK  status: ('A' for Active; 'I' for Inactive)
REMARK    1  A    between atoms: O_2  and  C_3 
REMARK    2  A    between atoms: C_4  and  O_5 
REMARK    3  A    between atoms: C_8  and  C_9 
REMARK    4  A    between atoms: C_9  and  C_10 
REMARK    5  A    between atoms: C_11  and  C_13 
REMARK    6  A    between atoms: C_13  and  C_14 
REMARK    7  A    between atoms: C_15  and  C_16 
REMARK    8  A    between atoms: C_18  and  C_19 
REMARK    9  A    between atoms: C_19  and  C_20 
REMARK   10  A    between atoms: C_20  and  O_21 
REMARK   11  A    between atoms: C_20  and  C_22 
REMARK   12  A    between atoms: C_28  and  O_29 
ROOT
ATOM      1  C           0      72.658  -1.050  33.179  0.00  0.00    -0.018 C 
ATOM      2  C           0      72.487  -0.964  34.475  0.00  0.00    -0.084 C 
ATOM      3  C           0      72.885  -2.112  35.366  0.00  0.00     0.043 C 
ENDROOT
BRANCH   2   4
ATOM      4  C           0      71.892   0.285  35.075  0.00  0.00     0.060 C 
BRANCH   4   5
ATOM      5  C           0      71.342  -0.028  36.443  0.00  0.00    -0.022 C 
ATOM      6  C           0      71.712   0.699  37.491  0.00  0.00     0.003 C 
BRANCH   6   7
ATOM      7  C           0      71.176   0.394  38.826  0.00  0.00    -0.066 C 
ATOM      8  C           0      70.903  -1.035  39.219  0.00  0.00     0.048 C 
ATOM      9  C           0      70.932   1.378  39.685  0.00  0.00    -0.013 C 
BRANCH   9  10
ATOM     10  C           0      70.556   1.057  41.109  0.00  0.00     0.037 C 
ATOM     11  C           0      71.619   1.620  42.055  0.00  0.00     0.017 C 
BRANCH  10  12
ATOM     12  C           0      69.200   1.689  41.432  0.00  0.00     0.153 C 
BRANCH  12  13
ATOM     13  O           0      69.085   2.943  40.756  0.00  0.00    -0.391 OA
ATOM     14  H           0      69.283   2.777  39.824  0.00  0.00     0.210 HD
ENDBRANCH  12  13
BRANCH  12  15
ATOM     15  C           0      68.096   0.770  40.977  0.00  0.00    -0.059 C 
ATOM     16  C           0      67.122   1.228  39.921  0.00  0.00     0.046 C 
ATOM     17  C           0      67.983  -0.427  41.496  0.00  0.00    -0.026 C 
ATOM     18  C           0      66.879  -1.346  41.041  0.00  0.00     0.036 C 
ENDBRANCH  12  15
ENDBRANCH  10  12
ENDBRANCH   9  10
ENDBRANCH   6   7
ENDBRANCH   4   5
ENDBRANCH   2   4
BRANCH   1  19
ATOM     19  C           0      73.072  -2.360  32.560  0.00  0.00     0.087 C 
BRANCH  19  20
ATOM     20  C           0      73.555  -2.119  31.153  0.00  0.00     0.049 A 
ATOM     21  C           0      74.877  -2.356  30.838  0.00  0.00    -0.001 A 
ATOM     22  C           0      75.317  -2.132  29.536  0.00  0.00     0.111 A 
ATOM     23  C           0      75.834  -2.850  31.891  0.00  0.00     0.053 C 
ATOM     24  C           0      74.396  -1.673  28.595  0.00  0.00     0.155 A 
ATOM     25  C           0      73.082  -1.455  28.992  0.00  0.00     0.201 A 
ATOM     26  N           0      72.706  -1.686  30.239  0.00  0.00    -0.226 NA
BRANCH  22  27
ATOM     27  O           0      76.612  -2.353  29.190  0.00  0.00    -0.357 OA
ATOM     28  H           0      76.633  -3.187  28.703  0.00  0.00     0.217 HD
ENDBRANCH  22  27
BRANCH  24  29
ATOM     29  O           0      74.778  -1.440  27.310  0.00  0.00    -0.349 OA
ATOM     30  C           0      75.231  -0.085  27.253  0.00  0.00     0.210 C 
ENDBRANCH  24  29
BRANCH  25  31
ATOM     31  O           0      72.172  -1.008  28.087  0.00  0.00    -0.337 OA
ATOM     32  C           0      70.898  -1.040  28.733  0.00  0.00     0.211 C 
ENDBRANCH  25  31
ENDBRANCH  19  20
ENDBRANCH   1  19
TORSDOF 12
ENDMDL
MODEL 10
REMARK VINA RESULT:      -8.7      4.814     13.300
REMARK  12 active torsions:
REMARK  status: ('A' for Active; 'I' for Inactive)
REMARK    1  A    between atoms: O_2  and  C_3 
REMARK    2  A    between atoms: C_4  and  O_5 
REMARK    3  A    between atoms: C_8  and  C_9 
REMARK    4  A    between atoms: C_9  and  C_10 
REMARK    5  A    between atoms: C_11  and  C_13 
REMARK    6  A    between atoms: C_13  and  C_14 
REMARK    7  A    between atoms: C_15  and  C_16 
REMARK    8  A    between atoms: C_18  and  C_19 
REMARK    9  A    between atoms: C_19  and  C_20 
REMARK   10  A    between atoms: C_20  and  O_21 
REMARK   11  A    between atoms: C_20  and  C_22 
REMARK   12  A    between atoms: C_28  and  O_29 
ROOT
ATOM      1  C           0      73.196  -1.336  33.773  0.00  0.00    -0.018 C 
ATOM      2  C           0      72.094  -1.155  34.457  0.00  0.00    -0.084 C 
ATOM      3  C           0      71.131  -2.297  34.653  0.00  0.00     0.043 C 
ENDROOT
BRANCH   2   4
ATOM      4  C           0      71.788   0.198  35.048  0.00  0.00     0.060 C 
BRANCH   4   5
ATOM      5  C           0      71.486   0.048  36.517  0.00  0.00    -0.022 C 
ATOM      6  C           0      70.278   0.349  36.980  0.00  0.00     0.003 C 
BRANCH   6   7
ATOM      7  C           0      69.983   0.204  38.414  0.00  0.00    -0.066 C 
ATOM      8  C           0      68.906   1.045  39.050  0.00  0.00     0.048 C 
ATOM      9  C           0      70.665  -0.668  39.148  0.00  0.00    -0.013 C 
BRANCH   9  10
ATOM     10  C           0      70.245  -0.949  40.568  0.00  0.00     0.037 C 
ATOM     11  C           0      69.718  -2.381  40.671  0.00  0.00     0.017 C 
BRANCH  10  12
ATOM     12  C           0      71.449  -0.781  41.498  0.00  0.00     0.153 C 
BRANCH  12  13
ATOM     13  O           0      72.427  -1.779  41.197  0.00  0.00    -0.391 OA
ATOM     14  H           0      72.388  -2.431  41.910  0.00  0.00     0.210 HD
ENDBRANCH  12  13
BRANCH  12  15
ATOM     15  C           0      72.050   0.587  41.300  0.00  0.00    -0.059 C 
ATOM     16  C           0      73.406   0.727  40.656  0.00  0.00     0.046 C 
ATOM     17  C           0      71.395   1.654  41.686  0.00  0.00    -0.026 C 
ATOM     18  C           0      71.996   3.021  41.487  0.00  0.00     0.036 C 
ENDBRANCH  12  15
ENDBRANCH  10  12
ENDBRANCH   9  10
ENDBRANCH   6   7
ENDBRANCH   4   5
ENDBRANCH   2   4
BRANCH   1  19
ATOM     19  C           0      73.414  -2.626  33.025  0.00  0.00     0.087 C 
BRANCH  19  20
ATOM     20  C           0      73.750  -2.321  31.587  0.00  0.00     0.049 A 
ATOM     21  C           0      75.032  -2.537  31.129  0.00  0.00    -0.001 A 
ATOM     22  C           0      75.336  -2.253  29.799  0.00  0.00     0.111 A 
ATOM     23  C           0      76.093  -3.072  32.056  0.00  0.00     0.053 C 
ATOM     24  C           0      74.323  -1.759  28.980  0.00  0.00     0.155 A 
ATOM     25  C           0      73.056  -1.565  29.518  0.00  0.00     0.201 A 
ATOM     26  N           0      72.810  -1.853  30.785  0.00  0.00    -0.226 NA
BRANCH  22  27
ATOM     27  O           0      76.589  -2.452  29.314  0.00  0.00    -0.357 OA
ATOM     28  H           0      77.200  -2.034  29.936  0.00  0.00     0.217 HD
ENDBRANCH  22  27
BRANCH  24  29
ATOM     29  O           0      74.572  -1.467  27.674  0.00  0.00    -0.349 OA
ATOM     30  C           0      75.184  -0.176  27.647  0.00  0.00     0.210 C 
ENDBRANCH  24  29
BRANCH  25  31
ATOM     31  O           0      72.059  -1.084  28.732  0.00  0.00    -0.337 OA
ATOM     32  C           0      70.828  -1.515  29.317  0.00  0.00     0.211 C 
ENDBRANCH  25  31
ENDBRANCH  19  20
ENDBRANCH   1  19
TORSDOF 12
ENDMDL
